Circuit: * C:\Users\sytye\Desktop\PCB_Frequency-meter-based-on-STM32\Shield_Frequency_meter_STM32\simulation\simulation.asc

WARNING: Node N007 is floating.
WARNING: Node NC_01 is floating.
WARNING: Node N009 is floating.
WARNING: Node N010 is floating.

WARNING: Less than two connections to node N007.  This node is used by C3.
WARNING: Less than two connections to node NC_01.  This node is used by C3.
WARNING: Less than two connections to node N009.  This node is used by C4.
WARNING: Less than two connections to node N010.  This node is used by C4.
Direct Newton iteration for .op point succeeded.
Ignoring empty pin current: Ix(u1:dummy)
Ignoring empty pin current: Ix(u1:dummy)
Heightened Def Con from 5.19017e-005 ++++++++++++++++++++++++++to 5.19017e-005
Heightened Def Con from 5.24447e-005 +++++++++++++++++++++++++to 5.24447e-005
Heightened Def Con from 0.00010201 +++++++++++++++++++++++++++++to 0.000102011
Heightened Def Con from 0.000147019 +++++++++++++++++++++++++to 0.000147019
Heightened Def Con from 0.00015199 +++++++++++++++++++++++++to 0.00015199
Heightened Def Con from 0.000152468 +to 0.000152471
Heightened Def Con from 0.000198169 +++++++++++++++++++++++to 0.000198169
Heightened Def Con from 0.000202165 +++++++++++++++++++++++to 0.000202165
Heightened Def Con from 0.000252067 ++++++++++++++++++++++++++to 0.000252067
Heightened Def Con from 0.000252396 ++++++++++++++++++++to 0.000252399
Heightened Def Con from 0.000254718 +to 0.000254719
Heightened Def Con from 0.000298099 +++++++++++++++++++++++to 0.000298103
Heightened Def Con from 0.000302422 +++++++++++++to 0.000302422
Heightened Def Con from 0.000302491 to 0.000302492
Heightened Def Con from 0.000351892 ++++++++++++++++++++++++++to 0.000351892
Heightened Def Con from 0.000352434 ++to 0.000352434
Heightened Def Con from 0.000402425 to 0.000402425
Heightened Def Con from 0.000447065 +++++++++++++++++++++++++++++to 0.000447066
Heightened Def Con from 0.000447067 to 0.000447067
Heightened Def Con from 0.000451855 +++++++++++++++++++++++++to 0.000451855
Heightened Def Con from 0.000452402 +++++++++++++++++++++to 0.000452402
Heightened Def Con from 0.000452466 to 0.000452466
Heightened Def Con from 0.00050248 ++to 0.00050248
Heightened Def Con from 0.000551863 +++++++++++++++++++++++++to 0.000551863
Heightened Def Con from 0.000552408 ++++++++++++++++++++++++++to 0.000552408
Heightened Def Con from 0.000597176 +++++++++++++++++++++++to 0.000597176
Heightened Def Con from 0.000601123 ++++++++++++++++++++++++++++++to 0.000601124
Heightened Def Con from 0.000602342 ++++++++++++++++++++++++++++to 0.000602343
Heightened Def Con from 0.000647099 ++++++++++++++++++++++++++++++to 0.0006471
Heightened Def Con from 0.0006471 to 0.0006471
Heightened Def Con from 0.0006471 to 0.0006471
Heightened Def Con from 0.000652028 ++++++++++++++++++++++++++to 0.000652028
Heightened Def Con from 0.000701958 ++++++++++++++++++++++++++++++to 0.00070196
Heightened Def Con from 0.00070196 to 0.00070196
Heightened Def Con from 0.000747099 ++++++++++++++++++++++++++++++to 0.0007471
Heightened Def Con from 0.0007471 to 0.0007471
Heightened Def Con from 0.000747101 to 0.000747101
Heightened Def Con from 0.000751927 ++++++++++++++++++++++to 0.000751927
Heightened Def Con from 0.00075244 +to 0.000752443
Heightened Def Con from 0.000801861 ++++++++++++++++++++++++++++++to 0.000801862
Heightened Def Con from 0.000801863 to 0.000801863
Heightened Def Con from 0.000802441 ++++++++++++++++++to 0.000802441
Heightened Def Con from 0.000802473 to 0.000802473
Heightened Def Con from 0.000851991 ++++++++++++++++++++++++++to 0.000851991
Heightened Def Con from 0.000852439 +++++++++++++++to 0.000852439
Heightened Def Con from 0.000902189 ++to 0.000902189
Heightened Def Con from 0.000902492 +to 0.000902495
Heightened Def Con from 0.00094702 +++++++++++++++++++++++++to 0.00094702
Heightened Def Con from 0.000951987 +++++++++++++++++++++++++++to 0.000951987
Heightened Def Con from 0.000952446 +++++++++++++++++++to 0.000952446
Heightened Def Con from 0.000998075 +++++++++++++++++++++++to 0.000998075
Heightened Def Con from 0.00100187 +++++++++++++++++++++++++++++++to 0.00100187
Heightened Def Con from 0.00100244 ++++++++++++++++++++++to 0.00100244
Heightened Def Con from 0.00100247 +to 0.00100247
Heightened Def Con from 0.00100517 to 0.00100517
Heightened Def Con from 0.00105186 +++++++++++++++++++++++++++++to 0.00105186
Heightened Def Con from 0.0010524 +++++++++++++to 0.0010524
Heightened Def Con from 0.00105246 to 0.00105246
Heightened Def Con from 0.00110185 +++++++++++++++++++++++++++++++to 0.00110185
Heightened Def Con from 0.00110249 to 0.00110249
Heightened Def Con from 0.00115153 +++++++++++++++++++++++++++++to 0.00115153
Heightened Def Con from 0.00120197 +++++++++++++++++++++++++++++++to 0.00120197
Heightened Def Con from 0.00120243 ++++++++++++++++++++++to 0.00120243
Heightened Def Con from 0.00124689 ++++++++++++++++++++++++++++++to 0.00124689
Heightened Def Con from 0.00124689 to 0.00124689
Heightened Def Con from 0.00124689 +++to 0.00124689
Heightened Def Con from 0.00125171 +++++++++++++++++++++++++++++to 0.00125171
Heightened Def Con from 0.00125244 ++++++++++++to 0.00125244
Heightened Def Con from 0.00130196 +++++++++++++++++++++++++++++++to 0.00130196
Heightened Def Con from 0.00130243 +to 0.00130243
Heightened Def Con from 0.00130453 to 0.00130454
Heightened Def Con from 0.00134702 ++++++++++++++++++++++++++++++to 0.00134702
Heightened Def Con from 0.00134702 to 0.00134702
Heightened Def Con from 0.00135246 +to 0.00135246
Heightened Def Con from 0.00139715 +++++++++++++++++++++++to 0.00139715
Heightened Def Con from 0.0014021 +++++++++++++++++++++++++++++++to 0.0014021
Heightened Def Con from 0.00145194 +++++++++++++++++++++++++++++to 0.00145195
Heightened Def Con from 0.00145241 +++++++++++++++++++++to 0.00145241
Heightened Def Con from 0.00145244 to 0.00145244
Heightened Def Con from 0.00145246 to 0.00145246
Heightened Def Con from 0.00150213 +++++++++++++++++++++++++++++++to 0.00150214
Heightened Def Con from 0.00150214 to 0.00150214
Heightened Def Con from 0.00150246 +++++++++++++++++++++to 0.00150246
Heightened Def Con from 0.00154702 ++++++++++++++++++++++++++++++to 0.00154703
Heightened Def Con from 0.00154703 to 0.00154703
Heightened Def Con from 0.00155184 +++++++++++++++++++++++++++++to 0.00155184
Heightened Def Con from 0.00155184 +to 0.00155184
Heightened Def Con from 0.00155246 +to 0.00155246
Heightened Def Con from 0.00160197 +++++++++++++++++++++++++++++++to 0.00160197
Heightened Def Con from 0.00160197 to 0.00160197
Heightened Def Con from 0.00160244 +++++++++++to 0.00160244
Heightened Def Con from 0.00160248 to 0.00160248
Heightened Def Con from 0.00165201 +++++++++++++++++++++++++++++to 0.00165201
Heightened Def Con from 0.00165244 +to 0.00165244
Heightened Def Con from 0.00170219 +++++++++++++++++++++++++++++to 0.00170219
Heightened Def Con from 0.00174706 ++++++++++++++++++++++++++++++to 0.00174706
Heightened Def Con from 0.00174706 to 0.00174706
Heightened Def Con from 0.00175189 +++++++++++++++++++++++++++++to 0.00175189
Heightened Def Con from 0.00175245 ++to 0.00175245
Heightened Def Con from 0.00180198 +++++++++++++++++++++++++++++++to 0.00180198
Heightened Def Con from 0.00180248 +to 0.00180248
Heightened Def Con from 0.00180517 to 0.00180517
Heightened Def Con from 0.00185193 +++++++++++++++++++++++++++++to 0.00185194
Heightened Def Con from 0.00185239 ++to 0.00185239
Heightened Def Con from 0.00185246 +++++++++++++++++++++to 0.00185246
Heightened Def Con from 0.00190154 +++++++++++++++++++++++++++++++to 0.00190154
Heightened Def Con from 0.00190243 +++++++++++++++++++++to 0.00190243
Heightened Def Con from 0.00194702 ++++++++++++++++++++++++++++++to 0.00194702
Heightened Def Con from 0.00194702 to 0.00194702
Heightened Def Con from 0.0019521 +++++++++++++++++++++++++++++to 0.0019521
Heightened Def Con from 0.0019521 to 0.0019521
Heightened Def Con from 0.00200188 +++++++++++++++++++++++++++++++to 0.00200188
Heightened Def Con from 0.00200247 +++++++++++++++++to 0.00200247
Heightened Def Con from 0.00205166 ++++++++++++++++++++++++++++++to 0.00205166
Heightened Def Con from 0.00205166 to 0.00205166
Heightened Def Con from 0.00205166 +to 0.00205166
Heightened Def Con from 0.00205243 to 0.00205243
Heightened Def Con from 0.00210201 +++++++++++++++++++++++++++++++to 0.00210201
Heightened Def Con from 0.00210245 +to 0.00210245
Heightened Def Con from 0.00210248 +to 0.00210248
Heightened Def Con from 0.0021515 ++++++++++++++++++++++++++++++to 0.00215151
Heightened Def Con from 0.00215151 to 0.00215151
Heightened Def Con from 0.00215151 to 0.00215151
Heightened Def Con from 0.00215245 +++++++++++++++++++to 0.00215245
Heightened Def Con from 0.00215246 +to 0.00215246
Heightened Def Con from 0.00215514 to 0.00215514
Heightened Def Con from 0.00219702 +++++++++++++++++++++++++++++++to 0.00219702
Heightened Def Con from 0.00220147 +++++++++++++++++++++++to 0.00220147
Heightened Def Con from 0.00220245 +++++++++++++++++++++++to 0.00220245
Heightened Def Con from 0.00220249 to 0.00220249
Heightened Def Con from 0.0022519 +++++++++++++++++++++++++++++to 0.0022519
Heightened Def Con from 0.002302 +++++++++++++++++++++++++++++++to 0.002302
Heightened Def Con from 0.002302 to 0.002302
Heightened Def Con from 0.00230243 ++to 0.00230243
Heightened Def Con from 0.00235151 ++++++++++++++++++++++++++++++to 0.00235152
Heightened Def Con from 0.00235152 to 0.00235152
Heightened Def Con from 0.00235152 +to 0.00235152
Heightened Def Con from 0.00235246 +to 0.00235246
Heightened Def Con from 0.00240109 +++++++++++++++++++++++++++++++to 0.00240109
Heightened Def Con from 0.00240244 +to 0.00240244
Heightened Def Con from 0.0024519 +++++++++++++++++++++++++++++to 0.0024519
Heightened Def Con from 0.00245245 to 0.00245245
Heightened Def Con from 0.00245515 +to 0.00245515
Heightened Def Con from 0.00250181 +++++++++++++++++++++++++++++++to 0.00250181
Heightened Def Con from 0.00250245 +++++to 0.00250245
Heightened Def Con from 0.00250248 ++++++++++++to 0.00250248
Heightened Def Con from 0.00254702 ++++++++++++++++++++++++++++++to 0.00254702
Heightened Def Con from 0.00254702 to 0.00254702
Heightened Def Con from 0.0025521 +++++++++++++++++++++++++++++to 0.00255211
Heightened Def Con from 0.00255211 to 0.00255211
Heightened Def Con from 0.00255514 +to 0.00255514
Heightened Def Con from 0.00259691 +++++++++++++++++++++++to 0.00259691
Heightened Def Con from 0.00260184 +++++++++++++++++++++++++++++++to 0.00260184
Heightened Def Con from 0.00260245 ++++++++++++++++++++++to 0.00260245
Heightened Def Con from 0.00265195 +++++++++++++++++++++++++++++to 0.00265195
Heightened Def Con from 0.00265241 to 0.00265241
Heightened Def Con from 0.00265246 to 0.00265246
Heightened Def Con from 0.00270189 +++++++++++++++++++++++++++++++to 0.0027019
Heightened Def Con from 0.00270241 ++++++++++++++++++++to 0.00270242
Heightened Def Con from 0.00270248 +to 0.00270248
Heightened Def Con from 0.00274692 ++++++++++++++++++++++++++++++to 0.00274692
Heightened Def Con from 0.00274692 to 0.00274692
Heightened Def Con from 0.00274692 to 0.00274692
Heightened Def Con from 0.00275201 +++++++++++++++++++++++++++++to 0.00275201
Heightened Def Con from 0.00275244 +to 0.00275244
Heightened Def Con from 0.00275514 to 0.00275514
Heightened Def Con from 0.00280194 +++++++++++++++++++++++++++++++to 0.00280194
Heightened Def Con from 0.00284719 ++++++++++++++++++++++++++++++to 0.00284719
Heightened Def Con from 0.00284719 to 0.00284719
Heightened Def Con from 0.00284719 +to 0.00284719
Heightened Def Con from 0.00285185 +++++++++++++++++++++++++++++to 0.00285185
Heightened Def Con from 0.00285246 +to 0.00285246
Heightened Def Con from 0.00290217 +++++++++++++++++++++++++++++to 0.00290217
Heightened Def Con from 0.00290249 +to 0.00290249
Heightened Def Con from 0.00294702 ++++++++++++++++++++++++++++++to 0.00294702
Heightened Def Con from 0.00294702 to 0.00294702
Heightened Def Con from 0.0029521 +++++++++++++++++++++++++++++to 0.00295211
Heightened Def Con from 0.00295211 to 0.00295211
Heightened Def Con from 0.00299706 +++++++++++++++++++++++to 0.00299706
Heightened Def Con from 0.00300196 +++++++++++++++++++++++++++++++to 0.00300196
Heightened Def Con from 0.00300244 to 0.00300244
Heightened Def Con from 0.00300249 to 0.00300249
Heightened Def Con from 0.00304702 ++++++++++++++++++++++++++++++to 0.00304702
Heightened Def Con from 0.00304702 to 0.00304702
Heightened Def Con from 0.00305211 +++++++++++++++++++++++++++++to 0.00305211
Heightened Def Con from 0.00305211 to 0.00305211
Heightened Def Con from 0.00310219 +++++++++++++++++++++++++++++to 0.00310219
Heightened Def Con from 0.00315191 +++++++++++++++++++++++++++++to 0.00315192
Heightened Def Con from 0.00315246 +to 0.00315247
Heightened Def Con from 0.00320197 +++++++++++++++++++++++++++++++to 0.00320197
Heightened Def Con from 0.00320197 to 0.00320197
Heightened Def Con from 0.00320243 ++++++++++++++++to 0.00320243
Heightened Def Con from 0.00320247 to 0.00320247
Heightened Def Con from 0.00320249 ++to 0.00320249
Heightened Def Con from 0.00324702 ++++++++++++++++++++++++++++++to 0.00324702
Heightened Def Con from 0.00324702 to 0.00324702
Heightened Def Con from 0.00325245 ++++++++++++++++++++++++++to 0.00325245
Heightened Def Con from 0.00330205 +++++++++++++++++++++++++++++++to 0.00330205
Heightened Def Con from 0.00335186 +++++++++++++++++++++++++++++to 0.00335186
Heightened Def Con from 0.0033524 ++++++++++++++++++++++to 0.0033524
Heightened Def Con from 0.00335244 +to 0.00335244
Heightened Def Con from 0.00340183 +++++++++++++++++++++++++++++++to 0.00340183
Heightened Def Con from 0.00340245 +to 0.00340245
Heightened Def Con from 0.00345187 +++++++++++++++++++++++++++++to 0.00345187
Heightened Def Con from 0.00345187 to 0.00345187
Heightened Def Con from 0.00345245 to 0.00345245
Heightened Def Con from 0.003502 +++++++++++++++++++++++++++++++to 0.003502
Heightened Def Con from 0.00350517 +to 0.00350517
Heightened Def Con from 0.00354703 ++++++++++++++++++++++++++++++to 0.00354703
Heightened Def Con from 0.00354703 to 0.00354703
Heightened Def Con from 0.00355216 +++++++++++++++++++++++++++++to 0.00355216
Heightened Def Con from 0.00355216 to 0.00355216
Heightened Def Con from 0.00355514 to 0.00355514
Heightened Def Con from 0.0035969 +++++++++++++++++++++++to 0.0035969
Heightened Def Con from 0.00360185 +++++++++++++++++++++++++++++++to 0.00360185
Heightened Def Con from 0.00360247 +to 0.00360247
Heightened Def Con from 0.00364688 ++++++++++++++++++++++++++++++to 0.00364688
Heightened Def Con from 0.00364688 to 0.00364688
Heightened Def Con from 0.00364688 to 0.00364688
Heightened Def Con from 0.00365193 +++++++++++++++++++++++++++++to 0.00365193
Heightened Def Con from 0.00365247 to 0.00365247
Heightened Def Con from 0.00370191 +++++++++++++++++++++++++++++++to 0.00370191
Heightened Def Con from 0.00370191 to 0.00370191
Heightened Def Con from 0.00370191 +++++++++++++++++++++++++++++++++to 0.00370192
Heightened Def Con from 0.00370192 to 0.00370193
Heightened Def Con from 0.00370195 +++++++++++++++++to 0.00370195
Heightened Def Con from 0.00374702 ++++++++++++++++++++++++++++++to 0.00374702
Heightened Def Con from 0.00374702 to 0.00374702
Heightened Def Con from 0.00375245 +to 0.00375245
Heightened Def Con from 0.00380126 +++++++++++++++++++++++++++++++to 0.00380126
Heightened Def Con from 0.00380247 +++++++++++++++++++++to 0.00380247
Heightened Def Con from 0.0038524 to 0.0038524
Heightened Def Con from 0.00389807 +++++++++++++++++++++++to 0.00389807
Heightened Def Con from 0.00390193 +++++++++++++++++++++++++++++++to 0.00390193
Heightened Def Con from 0.00394702 ++++++++++++++++++++++++++++++to 0.00394702
Heightened Def Con from 0.00394702 to 0.00394702
Heightened Def Con from 0.0039521 +++++++++++++++++++++++++++++to 0.0039521
Heightened Def Con from 0.0039521 to 0.0039521
Heightened Def Con from 0.00400185 +++++++++++++++++++++++++++++++to 0.00400185
Heightened Def Con from 0.00400245 ++to 0.00400245
Heightened Def Con from 0.00400248 +to 0.00400248
Heightened Def Con from 0.00404702 ++++++++++++++++++++++++++++++to 0.00404702
Heightened Def Con from 0.00404702 to 0.00404702
Heightened Def Con from 0.00405211 +++++++++++++++++++++++++++++to 0.00405211
Heightened Def Con from 0.00405211 to 0.00405211
Heightened Def Con from 0.00410189 +++++++++++++++++++++++++++++++to 0.00410189
Heightened Def Con from 0.00410247 +to 0.00410247
Heightened Def Con from 0.00415186 +++++++++++++++++++++++++++++to 0.00415187
Heightened Def Con from 0.0041524 ++to 0.0041524
Heightened Def Con from 0.00415247 to 0.00415247
Heightened Def Con from 0.00420249 +to 0.00420249
Heightened Def Con from 0.00424708 ++++++++++++++++++++++++++++++to 0.00424709
Heightened Def Con from 0.00424709 to 0.00424709
Heightened Def Con from 0.00424709 to 0.00424709
Heightened Def Con from 0.00425188 +++++++++++++++++++++++++++++to 0.00425188
Heightened Def Con from 0.00425242 ++++++++++++++++to 0.00425242
Heightened Def Con from 0.00425245 to 0.00425245
Heightened Def Con from 0.00425247 ++to 0.00425247
Heightened Def Con from 0.00430196 +++++++++++++++++++++++++++++++to 0.00430196
Heightened Def Con from 0.00430242 ++++++++++to 0.00430242
Heightened Def Con from 0.00430517 +to 0.00430517
Heightened Def Con from 0.00434688 ++++++++++++++++++++++++++++++to 0.00434688
Heightened Def Con from 0.00434688 to 0.00434688
Heightened Def Con from 0.00434688 +to 0.00434688
Heightened Def Con from 0.00435177 +++++++++++++++++++++++++++++to 0.00435177
Heightened Def Con from 0.00435244 ++++++++++++++++to 0.00435244
Heightened Def Con from 0.00435246 ++to 0.00435246
Heightened Def Con from 0.00435514 to 0.00435514
Heightened Def Con from 0.00440247 ++++++++++++to 0.00440247
Heightened Def Con from 0.00445125 +++++++++++++++++++++++++++++to 0.00445125
Heightened Def Con from 0.00445243 to 0.00445243
Heightened Def Con from 0.00445245 to 0.00445245
Heightened Def Con from 0.00450214 +++++++++++++++++++++++++++++++to 0.00450214
Heightened Def Con from 0.00450214 to 0.00450214
Heightened Def Con from 0.00454692 ++++++++++++++++++++++++++++++to 0.00454692
Heightened Def Con from 0.00454692 to 0.00454692
Heightened Def Con from 0.00455213 +++++++++++++++++++++++++++++to 0.00455214
Heightened Def Con from 0.00460207 +++++++++++++++++++++++++++++++to 0.00460207
Heightened Def Con from 0.00464709 ++++++++++++++++++++++++++++++to 0.00464709
Heightened Def Con from 0.00464709 to 0.00464709
Heightened Def Con from 0.00464709 +to 0.00464709
Heightened Def Con from 0.0046519 +++++++++++++++++++++++++++++to 0.0046519
Heightened Def Con from 0.00469718 +++++++++++++++++++++++++++++++to 0.00469718
Heightened Def Con from 0.00470119 +++++++++++++++++++++++++++++++to 0.00470119
Heightened Def Con from 0.00470245 +++++++++++++++++to 0.00470245
Heightened Def Con from 0.00475188 +++++++++++++++++++++++++++++to 0.00475188
Heightened Def Con from 0.00480201 +++++++++++++++++++++++++++++++to 0.00480201
Heightened Def Con from 0.00480245 +++++++to 0.00480245
Heightened Def Con from 0.00485188 +++++++++++++++++++++++++++++to 0.00485188
Heightened Def Con from 0.00485243 ++++++++++++++++++to 0.00485243
Heightened Def Con from 0.00489703 +++++++++++++++++++++++to 0.00489703
Heightened Def Con from 0.00490201 +++++++++++++++++++++++++++++++to 0.00490201
Heightened Def Con from 0.00490245 ++to 0.00490245
Heightened Def Con from 0.00494692 ++++++++++++++++++++++++++++++to 0.00494692
Heightened Def Con from 0.00494692 to 0.00494692
Heightened Def Con from 0.00495208 +++++++++++++++++++++++++++++to 0.00495208
Heightened Def Con from 0.00495208 to 0.00495208
Heightened Def Con from 0.00495242 +++++++++++++++++++++++++to 0.00495242
Heightened Def Con from 0.00499716 +++++++++++++++++++++++to 0.00499716
Heightened Def Con from 0.00500148 +++++++++++++++++++++++++++++++to 0.00500148
Heightened Def Con from 0.00500243 ++++++++++++++++++to 0.00500243
Heightened Def Con from 0.00500249 to 0.00500249
Heightened Def Con from 0.00505123 +++++++++++++++++++++++++++++to 0.00505124
Heightened Def Con from 0.00505243 +to 0.00505243
Heightened Def Con from 0.00509715 +++++++++++++++++++++++to 0.00509715
Heightened Def Con from 0.00510209 +++++++++++++++++++++++++++++++to 0.00510209
Heightened Def Con from 0.00510247 ++to 0.00510247
Heightened Def Con from 0.00514707 ++++++++++++++++++++++++++++++to 0.00514707
Heightened Def Con from 0.00514707 to 0.00514707
Heightened Def Con from 0.00514707 +to 0.00514707
Heightened Def Con from 0.00515184 +++++++++++++++++++++++++++++to 0.00515184
Heightened Def Con from 0.00515184 +to 0.00515184
Heightened Def Con from 0.00515241 ++++++++++++++++++++++to 0.00515241
Heightened Def Con from 0.00515515 to 0.00515515
Heightened Def Con from 0.00520194 +++++++++++++++++++++++++++++++to 0.00520194
Heightened Def Con from 0.00520249 to 0.00520249
Heightened Def Con from 0.0052469 ++++++++++++++++++++++++++++++to 0.0052469
Heightened Def Con from 0.0052469 to 0.0052469
Heightened Def Con from 0.00525179 +++++++++++++++++++++++++++++to 0.00525179
Heightened Def Con from 0.00525242 +++++++++++++++++++++++to 0.00525242
Heightened Def Con from 0.00530216 +++++++++++++++++++++++++++++++to 0.00530216
Heightened Def Con from 0.00530216 to 0.00530216
Heightened Def Con from 0.00534717 ++++++++++++++++++++++++++++++to 0.00534717
Heightened Def Con from 0.00534717 to 0.00534717
Heightened Def Con from 0.00534717 +to 0.00534717
Heightened Def Con from 0.00535204 +++++++++++++++++++++++++++++to 0.00535204
Heightened Def Con from 0.00535244 to 0.00535245
Heightened Def Con from 0.00539818 +++++++++++++++++++++++++++++++to 0.00539818
Heightened Def Con from 0.00540247 +++++++++++++to 0.00540247
Heightened Def Con from 0.00540249 +to 0.00540249
Heightened Def Con from 0.00540517 to 0.00540517
Heightened Def Con from 0.00544709 ++++++++++++++++++++++++++++++to 0.00544709
Heightened Def Con from 0.00544709 to 0.00544709
Heightened Def Con from 0.00544709 to 0.00544709
Heightened Def Con from 0.00545189 +++++++++++++++++++++++++++++to 0.00545189
Heightened Def Con from 0.00545245 ++++++++++++++++++++++to 0.00545245
Heightened Def Con from 0.00549807 +++++++++++++++++++++++to 0.00549807
Heightened Def Con from 0.00550189 +++++++++++++++++++++++++++++++to 0.00550189
Heightened Def Con from 0.00550241 +++++++++++++++++to 0.00550242
Heightened Def Con from 0.00559817 +++++++++++++++++++++++++++++++to 0.00559817
Heightened Def Con from 0.0056013 +++++++++++++++++++++++to 0.0056013
Heightened Def Con from 0.00560245 ++++++++++++++++++++++++++to 0.00560246
Heightened Def Con from 0.00560509 to 0.00560509
Heightened Def Con from 0.0056524 +++++++++++++++to 0.0056524
Heightened Def Con from 0.00565246 +to 0.00565246
Heightened Def Con from 0.00570188 +++++++++++++++++++++++++++++++to 0.00570188
Heightened Def Con from 0.00570247 +to 0.00570247
Heightened Def Con from 0.00570249 +to 0.00570249
Heightened Def Con from 0.00575213 +++++++++++++++++++++++++++++to 0.00575213
Heightened Def Con from 0.00580212 +++++++++++++++++++++++++++++++to 0.00580212
Heightened Def Con from 0.00580212 to 0.00580212
Heightened Def Con from 0.00580517 to 0.00580517
Heightened Def Con from 0.00585197 +++++++++++++++++++++++++++++to 0.00585197
Heightened Def Con from 0.0058981 +++++++++++++++++++++++to 0.0058981
Heightened Def Con from 0.00590182 +++++++++++++++++++++++++++++++to 0.00590182
Heightened Def Con from 0.00590245 +++to 0.00590245
Heightened Def Con from 0.00595196 +++++++++++++++++++++++++++++to 0.00595196
Heightened Def Con from 0.00595241 ++++++++++++to 0.00595241
Heightened Def Con from 0.00595245 to 0.00595245
Heightened Def Con from 0.00595246 ++to 0.00595246
Heightened Def Con from 0.00600103 +++++++++++++++++++++++to 0.00600103
Heightened Def Con from 0.00600206 +++++++++++++++++++++++++++++++to 0.00600206
Heightened Def Con from 0.00604706 ++++++++++++++++++++++++++++++to 0.00604706
Heightened Def Con from 0.00604706 to 0.00604706
Heightened Def Con from 0.00604706 to 0.00604706
Heightened Def Con from 0.00605195 +++++++++++++++++++++++++++++to 0.00605195
Heightened Def Con from 0.00605241 +to 0.00605241
Heightened Def Con from 0.00605245 ++to 0.00605245
Heightened Def Con from 0.006102 +++++++++++++++++++++++++++++++to 0.006102
Heightened Def Con from 0.00610248 ++to 0.00610248
Heightened Def Con from 0.00614702 ++++++++++++++++++++++++++++++to 0.00614702
Heightened Def Con from 0.00614702 to 0.00614702
Heightened Def Con from 0.00615197 +++++++++++++++++++++++++++++to 0.00615197
Heightened Def Con from 0.00615242 +++++++++++to 0.00615242
Heightened Def Con from 0.00620191 +++++++++++++++++++++++++++++++to 0.00620191
Heightened Def Con from 0.00620248 ++to 0.00620248
Heightened Def Con from 0.006252 +++++++++++++++++++++++++++++to 0.006252
Heightened Def Con from 0.00629813 +++++++++++++++++++++++to 0.00629813
Heightened Def Con from 0.00630195 +++++++++++++++++++++++++++++++to 0.00630195
Heightened Def Con from 0.00630243 ++to 0.00630243
Heightened Def Con from 0.00634702 ++++++++++++++++++++++++++++++to 0.00634702
Heightened Def Con from 0.00634702 to 0.00634702
Heightened Def Con from 0.0063521 +++++++++++++++++++++++++++++to 0.0063521
Heightened Def Con from 0.0063521 to 0.0063521
Heightened Def Con from 0.00640199 +++++++++++++++++++++++++++++++to 0.00640199
Heightened Def Con from 0.00640199 to 0.00640199
Heightened Def Con from 0.00640244 ++to 0.00640244
Heightened Def Con from 0.00640247 to 0.00640247
Heightened Def Con from 0.00645197 +++++++++++++++++++++++++++++to 0.00645197
Heightened Def Con from 0.00650194 +++++++++++++++++++++++++++++++to 0.00650194
Heightened Def Con from 0.00650194 to 0.00650194
Heightened Def Con from 0.00650242 ++to 0.00650243
Heightened Def Con from 0.00650249 to 0.00650249
Heightened Def Con from 0.00654702 ++++++++++++++++++++++++++++++to 0.00654702
Heightened Def Con from 0.00654702 to 0.00654702
Heightened Def Con from 0.0065521 +++++++++++++++++++++++++++++to 0.00655211
Heightened Def Con from 0.00655211 to 0.00655211
Heightened Def Con from 0.00655245 ++to 0.00655245
Heightened Def Con from 0.00660197 +++++++++++++++++++++++++++++++to 0.00660197
Heightened Def Con from 0.00660244 +to 0.00660244
Heightened Def Con from 0.00664715 ++++++++++++++++++++++++++++++to 0.00664715
Heightened Def Con from 0.00664715 to 0.00664715
Heightened Def Con from 0.00665176 +++++++++++++++++++++++++++++to 0.00665176
Heightened Def Con from 0.00665242 +++++++++++++++++++++++to 0.00665242
Heightened Def Con from 0.00665245 ++++++++++++++++++++to 0.00665245
Heightened Def Con from 0.00665515 +to 0.00665515
Heightened Def Con from 0.00669707 +++++++++++++++++++++++++++++++to 0.00669708
Heightened Def Con from 0.00670142 +++++++++++++++++++++++++++++++to 0.00670142
Heightened Def Con from 0.00670246 +++++++++++++++++++++++++to 0.00670246
Heightened Def Con from 0.00674706 ++++++++++++++++++++++++++++++to 0.00674706
Heightened Def Con from 0.00674706 to 0.00674706
Heightened Def Con from 0.00675195 +++++++++++++++++++++++++++++to 0.00675195
Heightened Def Con from 0.00675241 +++++++++++++++to 0.00675241
Heightened Def Con from 0.00675246 to 0.00675246
Heightened Def Con from 0.00679703 +++++++++++++++++++++++++++++++to 0.00679703
Heightened Def Con from 0.0068015 +++++++++++++++++++++++to 0.0068015
Heightened Def Con from 0.00680201 +++++++++++++++++++++++to 0.00680201
Heightened Def Con from 0.00680248 ++++++++++++++++++++to 0.00680248
Heightened Def Con from 0.00685186 +++++++++++++++++++++++++++++to 0.00685186
Heightened Def Con from 0.0068524 ++to 0.0068524
Heightened Def Con from 0.00690201 +++++++++++++++++++++++++++++++to 0.00690201
Heightened Def Con from 0.00694702 ++++++++++++++++++++++++++++++to 0.00694702
Heightened Def Con from 0.00694702 to 0.00694702
Heightened Def Con from 0.0069521 +++++++++++++++++++++++++++++to 0.0069521
Heightened Def Con from 0.0069521 to 0.0069521
Heightened Def Con from 0.00700181 +++++++++++++++++++++++++++++++to 0.00700181
Heightened Def Con from 0.00700246 +++++++++++++++++++++++to 0.00700246
Heightened Def Con from 0.00704715 ++++++++++++++++++++++++++++++to 0.00704715
Heightened Def Con from 0.00704715 to 0.00704715
Heightened Def Con from 0.00704715 to 0.00704715
Heightened Def Con from 0.00704715 +to 0.00704715
Heightened Def Con from 0.00705246 ++++++++++++to 0.00705246
Heightened Def Con from 0.00709704 +++++++++++++++++++++++++++++++to 0.00709704
Heightened Def Con from 0.00710148 +++++++++++++++++++++++++++++++to 0.00710148
Heightened Def Con from 0.00710242 to 0.00710242
Heightened Def Con from 0.00710248 to 0.00710249
Heightened Def Con from 0.00715123 +++++++++++++++++++++++++++++to 0.00715123
Heightened Def Con from 0.00715243 +++++++++++++++++to 0.00715243
Heightened Def Con from 0.00715246 to 0.00715246
Heightened Def Con from 0.00720196 +++++++++++++++++++++++++++++++to 0.00720196
Heightened Def Con from 0.00720244 +++++++++++++++++to 0.00720244
Heightened Def Con from 0.00720248 +++++++++++++to 0.00720248
Heightened Def Con from 0.00725166 ++++++++++++++++++++++++++++++to 0.00725166
Heightened Def Con from 0.00725166 to 0.00725166
Heightened Def Con from 0.00725166 +to 0.00725166
Heightened Def Con from 0.00725243 ++++++++++++++++++++to 0.00725243
Heightened Def Con from 0.00730188 +++++++++++++++++++++++++++++++to 0.00730188
Heightened Def Con from 0.00730247 ++to 0.00730247
Heightened Def Con from 0.00735186 +++++++++++++++++++++++++++++to 0.00735186
Heightened Def Con from 0.0073524 ++to 0.0073524
Heightened Def Con from 0.00735246 +to 0.00735246
Heightened Def Con from 0.00740211 +++++++++++++++++++++++++++++++to 0.00740211
Heightened Def Con from 0.00740246 +++++++++++++++to 0.00740246
Heightened Def Con from 0.00745186 +++++++++++++++++++++++++++++to 0.00745186
Heightened Def Con from 0.0074524 ++++++++++++++++++++++to 0.0074524
Heightened Def Con from 0.00749807 +++++++++++++++++++++++to 0.00749807
Heightened Def Con from 0.00750189 +++++++++++++++++++++++++++++++to 0.00750189
Heightened Def Con from 0.00750249 +to 0.00750249
Heightened Def Con from 0.00750517 to 0.00750517
Heightened Def Con from 0.00755186 +++++++++++++++++++++++++++++to 0.00755186
Heightened Def Con from 0.00755244 ++++++++++to 0.00755244
Heightened Def Con from 0.00760199 +++++++++++++++++++++++++++++++to 0.00760199
Heightened Def Con from 0.00760244 +to 0.00760244
Heightened Def Con from 0.00760247 +to 0.00760247
Heightened Def Con from 0.00760248 to 0.00760248
Heightened Def Con from 0.00765191 +++++++++++++++++++++++++++++to 0.00765191
Heightened Def Con from 0.00765246 ++++++++++++++++to 0.00765246
Heightened Def Con from 0.00770193 +++++++++++++++++++++++++++++++to 0.00770193
Heightened Def Con from 0.00770242 ++to 0.00770242
Heightened Def Con from 0.00770517 +to 0.00770517
Heightened Def Con from 0.0077519 +++++++++++++++++++++++++++++to 0.0077519
Heightened Def Con from 0.00775246 ++++to 0.00775246
Heightened Def Con from 0.00779707 +++++++++++++++++++++++to 0.00779707
Heightened Def Con from 0.00780196 +++++++++++++++++++++++++++++++to 0.00780196
Heightened Def Con from 0.00780244 +++++++++++++++++++++++to 0.00780244
Heightened Def Con from 0.00784705 ++++++++++++++++++++++++++++++to 0.00784705
Heightened Def Con from 0.00784705 to 0.00784705
Heightened Def Con from 0.00785206 +++++++++++++++++++++++++++++to 0.00785207
Heightened Def Con from 0.00785207 to 0.00785207
Heightened Def Con from 0.00785241 ++to 0.00785241
Heightened Def Con from 0.00785245 to 0.00785245
Heightened Def Con from 0.00785246 to 0.00785246
Heightened Def Con from 0.00790192 +++++++++++++++++++++++++++++++to 0.00790192
Heightened Def Con from 0.00790192 to 0.00790192
Heightened Def Con from 0.00790247 +to 0.00790247
Heightened Def Con from 0.00794702 ++++++++++++++++++++++++++++++to 0.00794702
Heightened Def Con from 0.00794702 to 0.00794702
Heightened Def Con from 0.0079521 +++++++++++++++++++++++++++++to 0.0079521
Heightened Def Con from 0.0079521 to 0.0079521
Heightened Def Con from 0.00795245 +to 0.00795245
Heightened Def Con from 0.00800151 +++++++++++++++++++++++++++++++to 0.00800151
Heightened Def Con from 0.00800247 +++++++++++++++++++++to 0.00800247
Heightened Def Con from 0.00800249 +to 0.00800249
Heightened Def Con from 0.00805188 +++++++++++++++++++++++++++++to 0.00805188
Heightened Def Con from 0.00805188 to 0.00805188
Heightened Def Con from 0.00805239 +++++++++++++++++++++to 0.00805239
Heightened Def Con from 0.00805245 to 0.00805245
Heightened Def Con from 0.00805247 to 0.00805247
Heightened Def Con from 0.00809701 +++++++++++++++++++++++++++++++to 0.00809701
Heightened Def Con from 0.00810113 +++++++++++++++++++++++++++++++to 0.00810113
Heightened Def Con from 0.00810248 +++++++++++++++++++++++++to 0.00810248
Heightened Def Con from 0.00815196 +++++++++++++++++++++++++++++to 0.00815196
Heightened Def Con from 0.00815241 ++++++++++++++++++++++++++to 0.00815241
Heightened Def Con from 0.00820183 +++++++++++++++++++++++++++++++to 0.00820183
Heightened Def Con from 0.00820183 to 0.00820183
Heightened Def Con from 0.00820241 +++++++++++++++++to 0.00820241
Heightened Def Con from 0.00820247 +to 0.00820247
Heightened Def Con from 0.00820249 +to 0.00820249
Heightened Def Con from 0.00825194 +++++++++++++++++++++++++++++to 0.00825194
Heightened Def Con from 0.0082524 ++++++++++++++++++++to 0.0082524
Heightened Def Con from 0.00825244 +to 0.00825244
Heightened Def Con from 0.00830185 +++++++++++++++++++++++++++++++to 0.00830185
Heightened Def Con from 0.00830245 +to 0.00830245
Heightened Def Con from 0.00830249 +to 0.00830249
Heightened Def Con from 0.00835188 +++++++++++++++++++++++++++++to 0.00835188
Heightened Def Con from 0.00835242 ++++++++++++++++++++++to 0.00835242
Heightened Def Con from 0.00835246 to 0.00835246
Heightened Def Con from 0.00839708 +++++++++++++++++++++++to 0.00839708
Heightened Def Con from 0.00840198 +++++++++++++++++++++++++++++++to 0.00840198
Heightened Def Con from 0.00840244 to 0.00840244
Heightened Def Con from 0.00840247 ++++++++++++++++++to 0.00840247
Heightened Def Con from 0.00840249 to 0.00840249
Heightened Def Con from 0.00845188 +++++++++++++++++++++++++++++to 0.00845188
Heightened Def Con from 0.00845242 ++++++++++++++to 0.00845242
Heightened Def Con from 0.008502 +++++++++++++++++++++++++++++++to 0.008502
Heightened Def Con from 0.00850517 +to 0.00850517
Heightened Def Con from 0.00854702 ++++++++++++++++++++++++++++++to 0.00854702
Heightened Def Con from 0.00854702 to 0.00854702
Heightened Def Con from 0.00855211 +++++++++++++++++++++++++++++to 0.00855211
Heightened Def Con from 0.00855211 to 0.00855211
Heightened Def Con from 0.0086013 +++++++++++++++++++++++++++++++to 0.0086013
Heightened Def Con from 0.00860215 +++++++++++++++++++++++++++++++to 0.00860215
Heightened Def Con from 0.00860215 to 0.00860215
Heightened Def Con from 0.00865189 +++++++++++++++++++++++++++++to 0.0086519
Heightened Def Con from 0.00865245 +++++++++++++++++++++to 0.00865245
Heightened Def Con from 0.00865247 to 0.00865247
Heightened Def Con from 0.00870181 +++++++++++++++++++++++++++++++to 0.00870181
Heightened Def Con from 0.00875153 +++++++++++++++++++++++++++++to 0.00875153
Heightened Def Con from 0.00879691 +++++++++++++++++++++++to 0.00879691
Heightened Def Con from 0.00880183 +++++++++++++++++++++++++++++++to 0.00880183
Heightened Def Con from 0.00880245 ++++++++++++++++++to 0.00880245
Heightened Def Con from 0.0088512 +++++++++++++++++++++++++++++to 0.0088512
Heightened Def Con from 0.00885246 ++to 0.00885246
Heightened Def Con from 0.00890201 +++++++++++++++++++++++++++++++to 0.00890201
Heightened Def Con from 0.00890245 ++++++++++++++++to 0.00890245
Heightened Def Con from 0.00894702 ++++++++++++++++++++++++++++++to 0.00894702
Heightened Def Con from 0.00894702 to 0.00894702
Heightened Def Con from 0.00894702 to 0.00894702
Heightened Def Con from 0.00895178 +++++++++++++++++++++++++++++to 0.00895178
Heightened Def Con from 0.00895242 to 0.00895242
Heightened Def Con from 0.00900131 +++++++++++++++++++++++++++++++to 0.00900131
Heightened Def Con from 0.00900216 +++++++++++++++++++++++to 0.00900216
Heightened Def Con from 0.00900244 to 0.00900244
Heightened Def Con from 0.00900247 to 0.00900247
Heightened Def Con from 0.00900517 +to 0.00900517
Heightened Def Con from 0.00905188 +++++++++++++++++++++++++++++to 0.00905188
Heightened Def Con from 0.00905242 ++++++++++++++++to 0.00905242
Heightened Def Con from 0.00909692 +++++++++++++++++++++++to 0.00909692
Heightened Def Con from 0.00910182 +++++++++++++++++++++++++++++++to 0.00910182
Heightened Def Con from 0.00910245 +++++++++++++++++++++++++to 0.00910246
Heightened Def Con from 0.00910513 to 0.00910513
Heightened Def Con from 0.00915188 +++++++++++++++++++++++++++++to 0.00915188
Heightened Def Con from 0.00915243 +to 0.00915243
Heightened Def Con from 0.00915246 ++to 0.00915246
Heightened Def Con from 0.00919817 +++++++++++++++++++++++++++++++to 0.00919817
Heightened Def Con from 0.0092013 +++++++++++++++++++++++++++++++to 0.0092013
Heightened Def Con from 0.00920216 +++++++++++++++++++++++to 0.00920216
Heightened Def Con from 0.00920243 ++++++++++++++to 0.00920243
Heightened Def Con from 0.00924705 ++++++++++++++++++++++++++++++to 0.00924705
Heightened Def Con from 0.00924705 to 0.00924705
Heightened Def Con from 0.00924705 +to 0.00924705
Heightened Def Con from 0.00925194 +++++++++++++++++++++++++++++to 0.00925194
Heightened Def Con from 0.0092524 ++++++++++++++++++++++to 0.0092524
Heightened Def Con from 0.00925247 to 0.00925247
Heightened Def Con from 0.00930109 +++++++++++++++++++++++++++++++to 0.00930109
Heightened Def Con from 0.00930244 +to 0.00930244
Heightened Def Con from 0.00930517 to 0.00930517
Heightened Def Con from 0.00935188 +++++++++++++++++++++++++++++to 0.00935188
Heightened Def Con from 0.00935242 +to 0.00935243
Heightened Def Con from 0.00940201 +++++++++++++++++++++++++++++++to 0.00940201
Heightened Def Con from 0.00940245 to 0.00940245
Heightened Def Con from 0.00945191 +++++++++++++++++++++++++++++to 0.00945191
Heightened Def Con from 0.00945246 +to 0.00945246
Heightened Def Con from 0.00950215 +++++++++++++++++++++++++++++++to 0.00950215
Heightened Def Con from 0.00950215 to 0.00950215
Heightened Def Con from 0.00954717 ++++++++++++++++++++++++++++++to 0.00954717
Heightened Def Con from 0.00954717 to 0.00954717
Heightened Def Con from 0.00954717 +to 0.00954717
Heightened Def Con from 0.00955211 +++++++++++++++++++++++++++++to 0.00955211
Heightened Def Con from 0.00955211 to 0.00955211
Heightened Def Con from 0.00960195 +++++++++++++++++++++++++++++++to 0.00960195
Heightened Def Con from 0.00960247 to 0.00960247
Heightened Def Con from 0.00964692 ++++++++++++++++++++++++++++++to 0.00964692
Heightened Def Con from 0.00964692 to 0.00964692
Heightened Def Con from 0.00965213 +++++++++++++++++++++++++++++to 0.00965213
Heightened Def Con from 0.00965244 to 0.00965244
Heightened Def Con from 0.00970198 +++++++++++++++++++++++++++++++to 0.00970198
Heightened Def Con from 0.00970244 to 0.00970244
Heightened Def Con from 0.00974702 ++++++++++++++++++++++++++++++to 0.00974702
Heightened Def Con from 0.00974702 to 0.00974702
Heightened Def Con from 0.00975211 +++++++++++++++++++++++++++++to 0.00975211
Heightened Def Con from 0.00975211 to 0.00975211
Heightened Def Con from 0.00975245 to 0.00975245
Heightened Def Con from 0.00980161 +++++++++++++++++++++++++++++++to 0.00980161
Heightened Def Con from 0.00985187 +++++++++++++++++++++++++++++to 0.00985188
Heightened Def Con from 0.00985242 ++to 0.00985242
Heightened Def Con from 0.00990216 +++++++++++++++++++++++++++++++to 0.00990216
Heightened Def Con from 0.00990216 to 0.00990216
Heightened Def Con from 0.00995153 +++++++++++++++++++++++++++++to 0.00995153
Heightened Def Con from 0.0100019 +++++++++++++++++++++++to 0.0100019
Heightened Def Con from 0.0100025 ++++++++++++++++++++to 0.0100025
Heightened Def Con from 0.0100525 ++to 0.0100525
Heightened Def Con from 0.0100551 to 0.0100551
Heightened Def Con from 0.0100971 +++++++++++++++++++++++to 0.0100971
Heightened Def Con from 0.0101011 +++++++++++++++++++++++to 0.0101011
Heightened Def Con from 0.0101021 +++++++++++++++++++++++to 0.0101021
Heightened Def Con from 0.0101024 ++++++++++++++to 0.0101024
Heightened Def Con from 0.0101025 ++++++++++++++++++++++to 0.0101025
Heightened Def Con from 0.0101025 to 0.0101025
Heightened Def Con from 0.0101052 +to 0.0101052
Heightened Def Con from 0.010152 ++++++++++++++++++++++++++to 0.010152
Heightened Def Con from 0.0101524 ++to 0.0101524
Heightened Def Con from 0.0101525 to 0.0101525
Heightened Def Con from 0.0102022 +++++++++++++++++++++++++++++to 0.0102022
Heightened Def Con from 0.0102521 ++++++++++++++++++++++++++to 0.0102521
Heightened Def Con from 0.0102524 ++++++++++++++++++to 0.0102524
Heightened Def Con from 0.0103012 +++++++++++++++++++++++to 0.0103012
Heightened Def Con from 0.0103024 ++to 0.0103024
Heightened Def Con from 0.010352 ++++++++++++++++++++++++++to 0.010352
Heightened Def Con from 0.0103524 +++++++++++++++++++++to 0.0103524
Heightened Def Con from 0.0104022 +++++++++++++++++++++++to 0.0104022
Heightened Def Con from 0.0104024 +++to 0.0104024
Heightened Def Con from 0.0104519 +++++++++++++++++++++++++to 0.0104519
Heightened Def Con from 0.0104524 +++++++++++++++++++++++++++to 0.0104524
Heightened Def Con from 0.0105018 +++++++++++++++++++++++to 0.0105018
Heightened Def Con from 0.0105519 +++++++++++++++++++++++++to 0.0105519
Heightened Def Con from 0.0105524 +++++++++++++++++++++++++to 0.0105524
Heightened Def Con from 0.0106019 +++++++++++++++++++++++to 0.0106019
Heightened Def Con from 0.0106025 +++++++++++to 0.0106025
Heightened Def Con from 0.0106025 to 0.0106025
Heightened Def Con from 0.010652 +++++++++++++++++++++++++to 0.010652
Heightened Def Con from 0.0106525 ++to 0.0106525
Heightened Def Con from 0.0106969 +++++++++++++++++++++++to 0.0106969
Heightened Def Con from 0.0107019 +++++++++++++++++++++++to 0.0107019
Heightened Def Con from 0.0107025 +to 0.0107025
Heightened Def Con from 0.0107025 +to 0.0107025
Heightened Def Con from 0.0107481 ++++++++++++++++++++++++to 0.0107481
Heightened Def Con from 0.0107518 +++++++++++++++++++++++++to 0.0107518
Heightened Def Con from 0.0107524 ++++++++++++++++++++++to 0.0107524
Heightened Def Con from 0.0107552 to 0.0107552
Heightened Def Con from 0.0107969 +++++++++++++++++++++++to 0.0107969
Heightened Def Con from 0.0108018 +++++++++++++++++++++++to 0.0108018
Heightened Def Con from 0.0108025 ++++++++++++++to 0.0108025
Heightened Def Con from 0.0108025 ++to 0.0108025
Heightened Def Con from 0.0108517 +++++++++++++++++++++++++++++to 0.0108517
Heightened Def Con from 0.0108517 +to 0.0108517
Heightened Def Con from 0.0108524 ++++++++++++++to 0.0108524
Heightened Def Con from 0.0108525 to 0.0108525
Heightened Def Con from 0.0108971 +++++++++++++++++++++++to 0.0108971
Heightened Def Con from 0.010902 +++++++++++++++++++++++to 0.010902
Heightened Def Con from 0.0109025 ++to 0.0109025
Heightened Def Con from 0.0109025 to 0.0109025
Heightened Def Con from 0.0109519 ++++++++++++++++++++++++++to 0.0109519
Heightened Def Con from 0.0109524 +++++++++++++++++++++to 0.0109524
Heightened Def Con from 0.0109551 to 0.0109551
Heightened Def Con from 0.0110025 ++++++++++to 0.0110025
Heightened Def Con from 0.0110469 +++++++++++++++++++++++++++++to 0.0110469
Heightened Def Con from 0.0110469 +to 0.0110469
Heightened Def Con from 0.0110517 +++++++++++++++++++++++++++++to 0.0110517
Heightened Def Con from 0.0110524 +to 0.0110524
Heightened Def Con from 0.0111014 +++++++++++++++++++++++to 0.0111014
Heightened Def Con from 0.0111024 +++++++++++++++++++++to 0.0111024
Heightened Def Con from 0.0111025 +to 0.0111025
Heightened Def Con from 0.011147 ++++++++++++++++++++++++++++++to 0.011147
Heightened Def Con from 0.011147 to 0.011147
Heightened Def Con from 0.011147 to 0.011147
Heightened Def Con from 0.011147 to 0.011147
Heightened Def Con from 0.011147 +to 0.011147
Heightened Def Con from 0.011147 to 0.011147
Heightened Def Con from 0.011147 +to 0.011147
Heightened Def Con from 0.0111519 ++++++++++++++++++++++++++to 0.0111519
Heightened Def Con from 0.0111524 +++to 0.0111524
Heightened Def Con from 0.0111525 ++++++++++++++++++++to 0.0111525
Heightened Def Con from 0.0112019 +++++++++++++++++++++++to 0.0112019
Heightened Def Con from 0.0112025 +to 0.0112025
Heightened Def Con from 0.0112471 +++++++++++++++++++++++++++++to 0.0112471
Heightened Def Con from 0.0112513 ++++++++++++++++++++++to 0.0112513
Heightened Def Con from 0.0112524 +to 0.0112524
Heightened Def Con from 0.0112525 to 0.0112525
Heightened Def Con from 0.0112969 +++++++++++++++++++++++to 0.0112969
Heightened Def Con from 0.0113018 +++++++++++++++++++++++to 0.0113018
Heightened Def Con from 0.0113025 ++++++++++++++++++++++to 0.0113025
Heightened Def Con from 0.0113025 +to 0.0113025
Heightened Def Con from 0.0113472 ++++++++++++++++++++++++++++to 0.0113472
Heightened Def Con from 0.0113516 ++++++++++++++++++++++++++++++to 0.0113516
Heightened Def Con from 0.0113516 to 0.0113516
Heightened Def Con from 0.0113516 +to 0.0113516
Heightened Def Con from 0.0113524 +++++++++++++++++++++++++to 0.0113524
Heightened Def Con from 0.0113971 to 0.0113971
Heightened Def Con from 0.0113983 +++++++++++++++++++++++to 0.0113983
Heightened Def Con from 0.0114022 +++++++++++++++++++++++to 0.0114022
Heightened Def Con from 0.0114025 ++++++++++++++++++++++++++++to 0.0114025
Heightened Def Con from 0.0114522 +++++++++++++++++++++++++++++to 0.0114522
Heightened Def Con from 0.0114522 +to 0.0114522
Heightened Def Con from 0.0114522 to 0.0114522
Heightened Def Con from 0.011502 +++++++++++++++++++++++to 0.011502
Heightened Def Con from 0.0115024 ++to 0.0115024
Heightened Def Con from 0.0115025 to 0.0115025
Heightened Def Con from 0.011547 +++++++++++++++++++++++++++++to 0.011547
Heightened Def Con from 0.0115519 ++++++++++++++++++++++++++to 0.0115519
Heightened Def Con from 0.0115524 +++++++++++++++++++++++++++++++++++to 0.0115524
Heightened Def Con from 0.0115524 ++++++++++++++++++to 0.0115524
Heightened Def Con from 0.0115524 ++to 0.0115524
Heightened Def Con from 0.0115524 to 0.0115524
Heightened Def Con from 0.0115524 +to 0.0115524
Heightened Def Con from 0.0115524 to 0.0115524
Heightened Def Con from 0.011602 +++++++++++++++++++++++to 0.011602
Heightened Def Con from 0.0116025 ++++++++++++++++++to 0.0116025
Heightened Def Con from 0.0116045 to 0.0116045
Heightened Def Con from 0.0116048 to 0.0116048
Heightened Def Con from 0.0116519 ++++++++++++++++++++++++++to 0.0116519
Heightened Def Con from 0.0116524 +++++++++++++++++++++++to 0.0116524
Heightened Def Con from 0.0116525 +to 0.0116525
Heightened Def Con from 0.0116969 +++++++++++++++++++++++to 0.0116969
Heightened Def Con from 0.0117018 +++++++++++++++++++++++to 0.0117018
Heightened Def Con from 0.0117025 +to 0.0117025
Heightened Def Con from 0.0117052 +to 0.0117052
Heightened Def Con from 0.0117469 +++++++++++++++++++++++++++++to 0.0117469
Heightened Def Con from 0.0117469 +to 0.0117469
Heightened Def Con from 0.0117517 +++++++++++++++++++++++++++++to 0.0117517
Heightened Def Con from 0.0117524 +++++++++++++++++++++++++to 0.0117524
Heightened Def Con from 0.0118018 +++++++++++++++++++++++to 0.0118018
Heightened Def Con from 0.0118024 ++to 0.0118024
Heightened Def Con from 0.0118481 ++++++++++++++++++++++++to 0.0118481
Heightened Def Con from 0.0118518 +++++++++++++++++++++++++to 0.0118518
Heightened Def Con from 0.0118524 ++++++++++++++++++++++to 0.0118524
Heightened Def Con from 0.0118981 +++++++++++++++++++++++to 0.0118981
Heightened Def Con from 0.0119019 +++++++++++++++++++++++to 0.0119019
Heightened Def Con from 0.0119024 ++++++++++++++++++++++to 0.0119024
Heightened Def Con from 0.011947 +++++++++++++++++++++++++++++to 0.011947
Heightened Def Con from 0.011952 ++++++++++++++++++++++++++to 0.011952
Heightened Def Con from 0.0119524 +++++++++++++++to 0.0119524
Heightened Def Con from 0.0120019 +++++++++++++++++++++++to 0.0120019
Heightened Def Con from 0.0120024 +++++++++++++++++++++to 0.0120024
Heightened Def Con from 0.0120025 to 0.0120025
Heightened Def Con from 0.012052 +++++++++++++++++++++++++++to 0.012052
Heightened Def Con from 0.0120525 +to 0.0120525
Heightened Def Con from 0.0120972 +++++++++++++++++++++++to 0.0120972
Heightened Def Con from 0.0121014 +++++++++++++++++++++++to 0.0121014
Heightened Def Con from 0.0121025 +to 0.0121025
Heightened Def Con from 0.0121521 ++++++++++++++++++++++++++to 0.0121521
Heightened Def Con from 0.0121525 to 0.0121525
Heightened Def Con from 0.0122018 +++++++++++++++++++++++to 0.0122018
Heightened Def Con from 0.0122025 ++++++++++++++to 0.0122025
Heightened Def Con from 0.0122025 ++to 0.0122025
Heightened Def Con from 0.0122516 +++++++++++++++++++++++++++++to 0.0122516
Heightened Def Con from 0.0122524 ++++++++++++++++++++++to 0.0122524
Heightened Def Con from 0.0123018 +++++++++++++++++++++++to 0.0123018
Heightened Def Con from 0.0123024 ++to 0.0123024
Heightened Def Con from 0.0123025 to 0.0123025
Heightened Def Con from 0.0123052 to 0.0123052
Heightened Def Con from 0.012347 +++++++++++++++++++++++++++++to 0.012347
Heightened Def Con from 0.0123521 +++++++++++++++++++++++to 0.0123521
Heightened Def Con from 0.0123524 +to 0.0123524
Heightened Def Con from 0.012402 +++++++++++++++++++++++to 0.012402
Heightened Def Con from 0.0124025 +to 0.0124025
Heightened Def Con from 0.0124025 +to 0.0124025
Heightened Def Con from 0.0124045 to 0.0124045
Heightened Def Con from 0.0124048 to 0.0124048
Heightened Def Con from 0.012447 +++++++++++++++++++++++++++++to 0.012447
Heightened Def Con from 0.0124521 +++++++++++++++++++++++to 0.0124521
Heightened Def Con from 0.0124524 ++++++++++++++++to 0.0124524
Heightened Def Con from 0.0124525 to 0.0124525
Heightened Def Con from 0.0124525 to 0.0124525
Heightened Def Con from 0.0124972 +++++++++++++++++++++++to 0.0124972
Heightened Def Con from 0.0125011 +++++++++++++++++++++++to 0.0125011
Heightened Def Con from 0.0125022 +++++++++++++++++++++++to 0.0125022
Heightened Def Con from 0.0125024 ++++++++++++++++++++++++++to 0.0125024
Heightened Def Con from 0.0125519 ++++++++++++++++++++++++++to 0.0125519
Heightened Def Con from 0.0125524 +++++to 0.0125524
Heightened Def Con from 0.0125525 ++to 0.0125525
Heightened Def Con from 0.0126019 +++++++++++++++++++++++to 0.0126019
Heightened Def Con from 0.0126024 +++++++++++++++++++++++++to 0.0126024
Heightened Def Con from 0.0126515 ++++++++++++++++++++++++++++++to 0.0126515
Heightened Def Con from 0.0126515 to 0.0126515
Heightened Def Con from 0.0126515 to 0.0126515
Heightened Def Con from 0.0126515 to 0.0126515
Heightened Def Con from 0.0126515 +to 0.0126515
Heightened Def Con from 0.0126524 ++to 0.0126524
Heightened Def Con from 0.0126525 ++to 0.0126525
Heightened Def Con from 0.0127019 +++++++++++++++++++++++to 0.0127019
Heightened Def Con from 0.0127025 +++++++++++++++++++++to 0.0127025
Heightened Def Con from 0.0127521 ++++++++++++++++++++++++++to 0.0127521
Heightened Def Con from 0.0127525 to 0.0127525
Heightened Def Con from 0.0127971 +++++++++++++++++++++++to 0.0127971
Heightened Def Con from 0.0128021 +++++++++++++++++++++++to 0.0128021
Heightened Def Con from 0.0128025 +to 0.0128025
Heightened Def Con from 0.0128052 to 0.0128052
Heightened Def Con from 0.012847 +++++++++++++++++++++++++++++to 0.012847
Heightened Def Con from 0.0128521 +++++++++++++++++++++++to 0.0128521
Heightened Def Con from 0.0128524 +++++++++++++++++++++++++++++to 0.0128524
Heightened Def Con from 0.0128524 to 0.0128524
Heightened Def Con from 0.0128982 +++++++++++++++++++++++to 0.0128982
Heightened Def Con from 0.012902 +++++++++++++++++++++++++++++to 0.012902
Heightened Def Con from 0.0129025 +to 0.0129025
Heightened Def Con from 0.0129519 +++++++++++++++++++++++++++++to 0.0129519
Heightened Def Con from 0.0129524 +++++++++++++++++++++++to 0.0129524
Heightened Def Con from 0.0129971 +++++++++++++++++++++++to 0.0129971
Heightened Def Con from 0.013002 +++++++++++++++++++++++to 0.013002
Heightened Def Con from 0.0130025 +to 0.0130025
Heightened Def Con from 0.013052 +++++++++++++++++++++++++++to 0.013052
Heightened Def Con from 0.0130524 ++to 0.0130524
Heightened Def Con from 0.0130525 to 0.0130525
Heightened Def Con from 0.0130969 +++++++++++++++++++++++to 0.0130969
Heightened Def Con from 0.0131018 +++++++++++++++++++++++to 0.0131018
Heightened Def Con from 0.0131024 +++++++++++to 0.0131024
Heightened Def Con from 0.0131471 ++++++++++++++++++++++++++++++to 0.0131471
Heightened Def Con from 0.0131471 to 0.0131471
Heightened Def Con from 0.0131471 to 0.0131471
Heightened Def Con from 0.013152 ++++++++++++++++++++++to 0.013152
Heightened Def Con from 0.0131547 to 0.0131547
Heightened Def Con from 0.013202 +++++++++++++++++++++++to 0.013202
Heightened Def Con from 0.0132024 +++++++++++++++++to 0.0132024
Heightened Def Con from 0.0132025 ++to 0.0132025
Heightened Def Con from 0.0132052 to 0.0132052
Heightened Def Con from 0.013252 +++++++++++++++++++++++++++++to 0.013252
Heightened Def Con from 0.0132524 to 0.0132524
Heightened Def Con from 0.0132525 +to 0.0132525
Heightened Def Con from 0.0132969 +++++++++++++++++++++++to 0.0132969
Heightened Def Con from 0.0133018 +++++++++++++++++++++++to 0.0133018
Heightened Def Con from 0.0133024 ++to 0.0133024
Heightened Def Con from 0.0133025 ++++++++++++++++to 0.0133025
Heightened Def Con from 0.0133515 +++++++++++++++++++++++++to 0.0133515
Heightened Def Con from 0.0133525 +++++++++++++to 0.0133525
Heightened Def Con from 0.0133971 +++++++++++++++++++++++to 0.0133971
Heightened Def Con from 0.013402 +++++++++++++++++++++++to 0.013402
Heightened Def Con from 0.0134025 ++++++++++++++++++++++to 0.0134025
Heightened Def Con from 0.013447 +++++++++++++++++++++++++++++to 0.013447
Heightened Def Con from 0.0134521 +++++++++++++++++++++++to 0.0134521
Heightened Def Con from 0.0134972 +++++++++++++++++++++++to 0.0134972
Heightened Def Con from 0.0135021 +++++++++++++++++++++++to 0.0135021
Heightened Def Con from 0.0135024 ++++++++++++++++++++++++to 0.0135024
Heightened Def Con from 0.013552 ++++++++++++++++++++++++++to 0.013552
Heightened Def Con from 0.0135524 +++to 0.0135524
Heightened Def Con from 0.0135524 +++++++++++++++++to 0.0135524
Heightened Def Con from 0.0135971 +++++++++++++++++++++++to 0.0135971
Heightened Def Con from 0.013602 +++++++++++++++++++++++to 0.013602
Heightened Def Con from 0.0136025 +++++++++++++++to 0.0136025
Heightened Def Con from 0.013652 +++++++++++++++++++++++++++to 0.013652
Heightened Def Con from 0.0136525 +to 0.0136525
Heightened Def Con from 0.0136525 to 0.0136525
Heightened Def Con from 0.0136971 +++++++++++++++++++++++to 0.0136971
Heightened Def Con from 0.0137021 +++++++++++++++++++++++to 0.0137021
Heightened Def Con from 0.0137025 ++to 0.0137025
Heightened Def Con from 0.0137519 +++++++++++++++++++++++++++++to 0.0137519
Heightened Def Con from 0.0138021 +++++++++++++++++++++++to 0.0138021
Heightened Def Con from 0.0138024 ++++++++++++++++++++++to 0.0138024
Heightened Def Con from 0.0138052 to 0.0138052
Heightened Def Con from 0.013847 +++++++++++++++++++++++++++++to 0.013847
Heightened Def Con from 0.0138521 +++++++++++++++++++++++to 0.0138521
Heightened Def Con from 0.0138524 +to 0.0138524
Heightened Def Con from 0.0138972 +++++++++++++++++++++++to 0.0138972
Heightened Def Con from 0.0139021 +++++++++++++++++++++++to 0.0139021
Heightened Def Con from 0.0139024 +++++++++++++++++++++++++to 0.0139024
Heightened Def Con from 0.0139025 +++++++++++++to 0.0139025
Heightened Def Con from 0.0139512 +++++++++++++++++++++++++to 0.0139512
Heightened Def Con from 0.0139524 +++++++++++++++++++++++++to 0.0139524
Heightened Def Con from 0.0139525 +to 0.0139525
Heightened Def Con from 0.014002 +++++++++++++++++++++++to 0.014002
Heightened Def Con from 0.0140024 +++++++++++++++++++++++to 0.0140024
Heightened Def Con from 0.0140472 +++++++++++++++++++++++++++++to 0.0140472
Heightened Def Con from 0.0140513 ++++++++++++++++++++++to 0.0140513
Heightened Def Con from 0.0140525 +to 0.0140525
Heightened Def Con from 0.0141019 +++++++++++++++++++++++to 0.0141019
Heightened Def Con from 0.0141025 ++++++++++++++++++++++to 0.0141025
Heightened Def Con from 0.0141025 to 0.0141025
Heightened Def Con from 0.0141472 +++++++++++++++++++++++++++++to 0.0141472
Heightened Def Con from 0.0141472 to 0.0141472
Heightened Def Con from 0.0141524 ++++++++++++++++++++++++to 0.0141524
Heightened Def Con from 0.0141525 +++++++++++++++to 0.0141525
Heightened Def Con from 0.0142021 +++++++++++++++++++++++to 0.0142021
Heightened Def Con from 0.0142024 ++to 0.0142024
Heightened Def Con from 0.0142025 to 0.0142025
Heightened Def Con from 0.0142519 ++++++++++++++++++++++++++to 0.0142519
Heightened Def Con from 0.0142524 ++++++++++++++++++to 0.0142524
Heightened Def Con from 0.0142547 to 0.0142547
Heightened Def Con from 0.014302 +++++++++++++++++++++++to 0.014302
Heightened Def Con from 0.0143025 ++to 0.0143025
Heightened Def Con from 0.014352 ++++++++++++++++++++++++++to 0.014352
Heightened Def Con from 0.0143524 ++++++++++++++++to 0.0143524
Heightened Def Con from 0.0144024 +++++++++++++++++++++++++++to 0.0144024
Heightened Def Con from 0.0144521 ++++++++++++++++++++++++++to 0.0144521
Heightened Def Con from 0.0145015 +++++++++++++++++++++++to 0.0145015
Heightened Def Con from 0.014502 +++++++++++++++++++++++to 0.014502
Heightened Def Con from 0.0145025 ++to 0.0145025
Heightened Def Con from 0.0145471 ++++++++++++++++++++++++++++++to 0.0145471
Heightened Def Con from 0.0145471 to 0.0145471
Heightened Def Con from 0.0145519 +++++++++++++++++++++++++to 0.0145519
Heightened Def Con from 0.0145524 ++++++++++++++++++++++to 0.0145524
Heightened Def Con from 0.0145525 to 0.0145525
Heightened Def Con from 0.0146022 +++++++++++++++++++++++to 0.0146022
Heightened Def Con from 0.0146025 ++++++++++++++++++++to 0.0146025
Heightened Def Con from 0.014652 ++++++++++++++++++++++++++to 0.014652
Heightened Def Con from 0.0146524 +to 0.0146524
Heightened Def Con from 0.0147019 +++++++++++++++++++++++to 0.0147019
Heightened Def Con from 0.0147024 +to 0.0147024
Heightened Def Con from 0.0147025 to 0.0147025
Heightened Def Con from 0.0147519 +++++++++++++++++++++++++++++to 0.0147519
Heightened Def Con from 0.0147524 +++++++++++++++++++++to 0.0147524
Heightened Def Con from 0.0147525 ++++++++++++to 0.0147525
Heightened Def Con from 0.0147547 +to 0.0147547
Heightened Def Con from 0.0147971 +++++++++++++++++++++++to 0.0147971
Heightened Def Con from 0.0148011 +++++++++++++++++++++++to 0.0148011
Heightened Def Con from 0.0148021 +++++++++++++++++++++++to 0.0148021
Heightened Def Con from 0.0148024 ++++++++++++++++++++++to 0.0148024
Heightened Def Con from 0.0148025 ++++++++++++++++++++++++to 0.0148025
Heightened Def Con from 0.0148515 +++++++++++++++++++++++++to 0.0148515
Heightened Def Con from 0.014852 +++++++++++++++++++++++++++++to 0.014852
Heightened Def Con from 0.0148524 ++to 0.0148524
Heightened Def Con from 0.0148972 +++++++++++++++++++++++to 0.0148972
Heightened Def Con from 0.0149021 +++++++++++++++++++++++to 0.0149021
Heightened Def Con from 0.0149024 +++++++++++++++++++++++++to 0.0149024
Heightened Def Con from 0.0149519 ++++++++++++++++++++++++++to 0.0149519
Heightened Def Con from 0.0149524 ++++++++++++++++to 0.0149524
Heightened Def Con from 0.0149972 +++++++++++++++++++++++to 0.0149972
Heightened Def Con from 0.0150011 +++++++++++++++++++++++to 0.0150011
Heightened Def Con from 0.0150021 +++++++++++++++++++++++to 0.0150021
Heightened Def Con from 0.0150024 ++++++++++++++++++++++to 0.0150024
Heightened Def Con from 0.0150025 +to 0.0150025
Heightened Def Con from 0.0150025 +to 0.0150025
Heightened Def Con from 0.0150472 ++++++++++++++++++++++++++++to 0.0150472
Heightened Def Con from 0.0150518 ++++++++++++++++++++++++++to 0.0150518
Heightened Def Con from 0.0150524 ++to 0.0150524
Heightened Def Con from 0.015102 +++++++++++++++++++++++to 0.015102
Heightened Def Con from 0.0151024 ++++++++++++++++++to 0.0151024
Heightened Def Con from 0.015152 +++++++++++++++++++++++++to 0.015152
Heightened Def Con from 0.0151524 +to 0.0151524
Heightened Def Con from 0.0151525 to 0.0151525
Heightened Def Con from 0.015197 +++++++++++++++++++++++to 0.015197
Heightened Def Con from 0.015202 +++++++++++++++++++++++to 0.015202
Heightened Def Con from 0.0152025 +++++++++++++++++++++++++to 0.0152025
Heightened Def Con from 0.0152472 ++++++++++++++++++++++++++++++to 0.0152472
Heightened Def Con from 0.0152472 to 0.0152472
Heightened Def Con from 0.0152472 to 0.0152472
Heightened Def Con from 0.0152519 ++++++++++++++++++++++++++to 0.0152519
Heightened Def Con from 0.0153019 +++++++++++++++++++++++to 0.0153019
Heightened Def Con from 0.0153025 +++++++++++++to 0.0153025
Heightened Def Con from 0.015347 +++++++++++++++++++++++++++++to 0.015347
Heightened Def Con from 0.0153521 +++++++++++++++++++++++to 0.0153521
Heightened Def Con from 0.0153524 ++++++++++++++to 0.0153524
Heightened Def Con from 0.0154472 ++++++++++++++++++++++++++++to 0.0154472
Heightened Def Con from 0.0154516 ++++++++++++++++++++++++++++++to 0.0154516
Heightened Def Con from 0.0154516 to 0.0154516
Heightened Def Con from 0.0154516 +to 0.0154516
Heightened Def Con from 0.0154516 to 0.0154516
Heightened Def Con from 0.0154524 ++++++++++++++++++++++++++to 0.0154524
Heightened Def Con from 0.015502 +++++++++++++++++++++++to 0.015502
Heightened Def Con from 0.0155025 +++++++++++++++++++++++to 0.0155025
Heightened Def Con from 0.0155025 to 0.0155025
Heightened Def Con from 0.0155519 +++++++++++++++++++++++++++++to 0.0155519
Heightened Def Con from 0.0155524 ++++++++++++++++++++++to 0.0155524
Heightened Def Con from 0.0155525 +to 0.0155525
Heightened Def Con from 0.0155547 to 0.0155547
Heightened Def Con from 0.0155971 +++++++++++++++++++++++to 0.0155971
Heightened Def Con from 0.015602 +++++++++++++++++++++++to 0.015602
Heightened Def Con from 0.0156025 +++to 0.0156025
Heightened Def Con from 0.015652 ++++++++++++++++++++++++++to 0.015652
Heightened Def Con from 0.0156525 +to 0.0156525
Heightened Def Con from 0.015702 +++++++++++++++++++++++to 0.015702
Heightened Def Con from 0.0157025 +++++++++++++++++++++++++to 0.0157025
Heightened Def Con from 0.0157025 +to 0.0157025
Heightened Def Con from 0.0157471 +++++++++++++++++++++++++++++to 0.0157471
Heightened Def Con from 0.0157513 ++++++++++++++++++++++to 0.0157513
Heightened Def Con from 0.0157524 +++++++++++++++++++++++to 0.0157524
Heightened Def Con from 0.0157525 ++++++++++++++++++++to 0.0157525
Heightened Def Con from 0.0157969 +++++++++++++++++++++++to 0.0157969
Heightened Def Con from 0.0158018 +++++++++++++++++++++++to 0.0158018
Heightened Def Con from 0.0158025 ++to 0.0158025
Heightened Def Con from 0.0158512 ++++++++++++++++++++++++++to 0.0158512
Heightened Def Con from 0.0158519 +++++++++++++++++++++++++to 0.0158519
Heightened Def Con from 0.0158524 ++to 0.0158524
Heightened Def Con from 0.0159021 +++++++++++++++++++++++to 0.0159021
Heightened Def Con from 0.0159024 +++++++++++++++++to 0.0159024
Heightened Def Con from 0.0159025 to 0.0159025
Heightened Def Con from 0.0159524 +to 0.0159524
Heightened Def Con from 0.0160021 +++++++++++++++++++++++to 0.0160021
Heightened Def Con from 0.0160025 ++to 0.0160025
Heightened Def Con from 0.016047 ++++++++++++++++++++++++++++++to 0.016047
Heightened Def Con from 0.016047 to 0.016047
Heightened Def Con from 0.016047 to 0.016047
Heightened Def Con from 0.016047 to 0.016047
Heightened Def Con from 0.016047 +to 0.016047
Heightened Def Con from 0.016047 to 0.016047
Heightened Def Con from 0.016047 +to 0.016047
Heightened Def Con from 0.0160522 +++++++++++++++++++++++++++++to 0.0160522
Heightened Def Con from 0.0160522 +to 0.0160522
Heightened Def Con from 0.0160524 to 0.0160524
Heightened Def Con from 0.0160524 to 0.0160524
Heightened Def Con from 0.0160547 to 0.0160547
Heightened Def Con from 0.0160551 to 0.0160551
Heightened Def Con from 0.0161022 +++++++++++++++++++++++to 0.0161022
Heightened Def Con from 0.0161025 +++to 0.0161025
Heightened Def Con from 0.0161519 ++++++++++++++++++++++++++to 0.0161519
Heightened Def Con from 0.0161524 +to 0.0161524
Heightened Def Con from 0.0161525 to 0.0161525
Heightened Def Con from 0.0162019 +++++++++++++++++++++++to 0.0162019
Heightened Def Con from 0.0162025 ++to 0.0162025
Heightened Def Con from 0.0162025 +to 0.0162025
Heightened Def Con from 0.0162519 ++++++++++++++++++++++++++to 0.0162519
Heightened Def Con from 0.0162524 +++++++++++++++++to 0.0162524
Heightened Def Con from 0.016302 +++++++++++++++++++++++to 0.016302
Heightened Def Con from 0.0163025 +++++++++++++++++to 0.0163025
Heightened Def Con from 0.0163469 +++++++++++++++++++++++++++++to 0.0163469
Heightened Def Con from 0.0163469 to 0.0163469
Heightened Def Con from 0.0163524 +++++++++++++to 0.0163524
Heightened Def Con from 0.0163972 +++++++++++++++++++++++to 0.0163972
Heightened Def Con from 0.0164011 +++++++++++++++++++++++to 0.0164011
Heightened Def Con from 0.0164021 +++++++++++++++++++++++to 0.0164021
Heightened Def Con from 0.0164024 ++++++++++++++++to 0.0164024
Heightened Def Con from 0.0164025 +++++++++++++++++++to 0.0164025
Heightened Def Con from 0.0164472 +++++++++++++++++++++++++++++to 0.0164472
Heightened Def Con from 0.0164519 ++++++++++++++++++++++++++to 0.0164519
Heightened Def Con from 0.0164524 ++++++++++++++++++to 0.0164524
Heightened Def Con from 0.0164551 to 0.0164551
Heightened Def Con from 0.0164969 +++++++++++++++++++++++to 0.0164969
Heightened Def Con from 0.0165018 +++++++++++++++++++++++to 0.0165018
Heightened Def Con from 0.0165025 ++++++++++++++++++to 0.0165025
Heightened Def Con from 0.0165025 to 0.0165025
Heightened Def Con from 0.0165048 to 0.0165048
Heightened Def Con from 0.0165524 to 0.0165524
Heightened Def Con from 0.0165524 ++to 0.0165524
Heightened Def Con from 0.0166012 +++++++++++++++++++++++to 0.0166012
Heightened Def Con from 0.0166025 +to 0.0166025
Heightened Def Con from 0.016652 +++++++++++++++++++++++++to 0.016652
Heightened Def Con from 0.0166524 to 0.0166524
Heightened Def Con from 0.016702 +++++++++++++++++++++++to 0.016702
Heightened Def Con from 0.0167025 +++++++++++++to 0.0167025
Heightened Def Con from 0.016747 +++++++++++++++++++++++++++++to 0.016747
Heightened Def Con from 0.0167521 +++++++++++++++++++++++to 0.0167521
Heightened Def Con from 0.0167524 to 0.0167524
Heightened Def Con from 0.0167525 +to 0.0167525
Heightened Def Con from 0.0167981 +++++++++++++++++++++++to 0.0167981
Heightened Def Con from 0.0168019 +++++++++++++++++++++++to 0.0168019
Heightened Def Con from 0.0168025 ++++++++++++++++++++to 0.0168025
Heightened Def Con from 0.0168052 to 0.0168052
Heightened Def Con from 0.016847 +++++++++++++++++++++++++++++to 0.016847
Heightened Def Con from 0.0168521 +++++++++++++++++++++++to 0.0168521
Heightened Def Con from 0.0168524 +++++++++++++++++++++++++++to 0.0168524
Heightened Def Con from 0.0169022 +++++++++++++++++++++++to 0.0169022
Heightened Def Con from 0.0169025 to 0.0169025
Heightened Def Con from 0.0169515 +++++++++++++++++++++++++++++to 0.0169515
Heightened Def Con from 0.0169525 ++to 0.0169525
Heightened Def Con from 0.0169525 +to 0.0169525
Heightened Def Con from 0.0169551 to 0.0169551
Heightened Def Con from 0.017002 +++++++++++++++++++++++to 0.017002
Heightened Def Con from 0.0170025 +++++++++++++++++++++++to 0.0170025
Heightened Def Con from 0.0170025 to 0.0170025
Heightened Def Con from 0.017047 ++++++++++++++++++++++++++++++to 0.017047
Heightened Def Con from 0.017047 to 0.017047
Heightened Def Con from 0.017047 to 0.017047
Heightened Def Con from 0.017047 to 0.017047
Heightened Def Con from 0.017047 +to 0.017047
Heightened Def Con from 0.017047 to 0.017047
Heightened Def Con from 0.017047 +to 0.017047
Heightened Def Con from 0.0170524 ++++++++++++++++++++++to 0.0170524
Heightened Def Con from 0.0171025 ++to 0.0171025
Heightened Def Con from 0.0171483 +++++++++++++++++++++++++++to 0.0171483
Heightened Def Con from 0.0171518 +++++++++++++++++++++++++++++to 0.0171518
Heightened Def Con from 0.0171524 +to 0.0171524
Heightened Def Con from 0.0172018 +++++++++++++++++++++++to 0.0172018
Heightened Def Con from 0.0172025 +to 0.0172025
Heightened Def Con from 0.017247 +++++++++++++++++++++++++++++to 0.017247
Heightened Def Con from 0.0172521 +++++++++++++++++++++++to 0.0172521
Heightened Def Con from 0.0172524 to 0.0172524
Heightened Def Con from 0.0172524 ++++++++++++++++to 0.0172524
Heightened Def Con from 0.0173019 +++++++++++++++++++++++to 0.0173019
Heightened Def Con from 0.0173025 ++to 0.0173025
Heightened Def Con from 0.0173519 ++++++++++++++++++++++++++to 0.0173519
Heightened Def Con from 0.0173524 ++to 0.0173524
Heightened Def Con from 0.0174025 to 0.0174025
Heightened Def Con from 0.017447 ++++++++++++++++++++++++++++++to 0.017447
Heightened Def Con from 0.017447 to 0.017447
Heightened Def Con from 0.017447 to 0.017447
Heightened Def Con from 0.017452 +++++++++++++++++++++++++++++to 0.017452
Heightened Def Con from 0.0174524 ++to 0.0174524
Heightened Def Con from 0.0175022 +++++++++++++++++++++++++++++to 0.0175022
Heightened Def Con from 0.0175024 +to 0.0175024
Heightened Def Con from 0.0175513 ++++++++++++++++++++++++++to 0.0175513
Heightened Def Con from 0.017552 ++++++++++++++++++++++++++to 0.017552
Heightened Def Con from 0.0175524 +++to 0.0175524
Heightened Def Con from 0.0175525 +++++++++++++to 0.0175525
Heightened Def Con from 0.017647 +++++++++++++++++++++++++++++to 0.017647
Heightened Def Con from 0.0176519 ++++++++++++++++++++++++++to 0.0176519
Heightened Def Con from 0.017702 +++++++++++++++++++++++to 0.017702
Heightened Def Con from 0.0177025 +++++++++++++++++++to 0.0177025
Heightened Def Con from 0.0177519 ++++++++++++++++++++++++++to 0.0177519
Heightened Def Con from 0.0177524 +++++++++++++++++++++++++to 0.0177524
Heightened Def Con from 0.0177971 +++++++++++++++++++++++to 0.0177971
Heightened Def Con from 0.017802 +++++++++++++++++++++++to 0.017802
Heightened Def Con from 0.0178025 +to 0.0178025
Heightened Def Con from 0.017847 +++++++++++++++++++++++++++++to 0.017847
Heightened Def Con from 0.0178521 +++++++++++++++++++++++to 0.0178521
Heightened Def Con from 0.0178524 +to 0.0178524
Heightened Def Con from 0.0178525 to 0.0178525
Heightened Def Con from 0.0179018 +++++++++++++++++++++++to 0.0179018
Heightened Def Con from 0.0179025 ++++++++++++++++to 0.0179025
Heightened Def Con from 0.0179521 ++++++++++++++++++++++++++to 0.0179521
Heightened Def Con from 0.0179525 +to 0.0179525
Heightened Def Con from 0.0180022 ++to 0.0180022
Heightened Def Con from 0.0180024 +++to 0.0180024
Heightened Def Con from 0.0180472 ++++++++++++++++++++++++++++to 0.0180472
Heightened Def Con from 0.018052 +++++++++++++++++++++++++++++to 0.018052
Heightened Def Con from 0.0180524 to 0.0180524
Heightened Def Con from 0.0181022 +++++++++++++++++++++++to 0.0181022
Heightened Def Con from 0.0181024 +++++++++++++++++++++++to 0.0181024
Heightened Def Con from 0.0181519 ++++++++++++++++++++++++++to 0.0181519
Heightened Def Con from 0.0181525 +to 0.0181525
Heightened Def Con from 0.0181971 +++++++++++++++++++++++to 0.0181971
Heightened Def Con from 0.0182021 +++++++++++++++++++++++to 0.0182021
Heightened Def Con from 0.0182025 +++++++++++++++++++to 0.0182025
Heightened Def Con from 0.0182513 ++++++++++++++++++++++++++to 0.0182513
Heightened Def Con from 0.018252 ++++++++++++++++++++++++++to 0.018252
Heightened Def Con from 0.0182524 +++++++++++++++++++++++to 0.0182524
Heightened Def Con from 0.0182524 +++++++++++++++++to 0.0182524
Heightened Def Con from 0.0183045 to 0.0183045
Heightened Def Con from 0.0183048 to 0.0183048
Heightened Def Con from 0.018347 ++++++++++++++++++++++++++++++to 0.018347
Heightened Def Con from 0.018347 to 0.018347
Heightened Def Con from 0.0183521 +++++++++++++++++++++++++++++to 0.0183521
Heightened Def Con from 0.0183521 to 0.0183521
Heightened Def Con from 0.0184012 +++++++++++++++++++++++to 0.0184012
Heightened Def Con from 0.018402 +++++++++++++++++++++++to 0.018402
Heightened Def Con from 0.0184471 +++++++++++++++++++++++++++++to 0.0184471
Heightened Def Con from 0.0184513 ++++++++++++++++++++++to 0.0184513
Heightened Def Con from 0.0184524 ++to 0.0184524
Heightened Def Con from 0.0185018 +++++++++++++++++++++++to 0.0185018
Heightened Def Con from 0.0185052 to 0.0185052
Heightened Def Con from 0.0185519 ++++++++++++++++++++++++++to 0.0185519
Heightened Def Con from 0.0185524 ++++++++++++++++++++++to 0.0185524
Heightened Def Con from 0.018602 +++++++++++++++++++++++to 0.018602
Heightened Def Con from 0.0186025 +++++++++++++++to 0.0186025
Heightened Def Con from 0.0186025 to 0.0186025
Heightened Def Con from 0.0186519 +++++++++++++++++++++++++++++to 0.0186519
Heightened Def Con from 0.0186524 +++++++++++++++to 0.0186524
Heightened Def Con from 0.0187019 +++++++++++++++++++++++to 0.0187019
Heightened Def Con from 0.0187025 +++++++++++++++to 0.0187025
Heightened Def Con from 0.0187521 ++++++++++++++++++++++++++to 0.0187521
Heightened Def Con from 0.0188018 +++++++++++++++++++++++to 0.0188018
Heightened Def Con from 0.0188025 ++++++++++++++++to 0.0188025
Heightened Def Con from 0.0188519 ++++++++++++++++++++++++++to 0.0188519
Heightened Def Con from 0.0188524 +++++++++++++++++++++to 0.0188524
Heightened Def Con from 0.0188969 +++++++++++++++++++++++to 0.0188969
Heightened Def Con from 0.0189018 +++++++++++++++++++++++to 0.0189018
Heightened Def Con from 0.0189025 ++to 0.0189025
Heightened Def Con from 0.0189519 +++++++++++++++++++++++++to 0.0189519
Heightened Def Con from 0.0189525 ++to 0.0189525
Heightened Def Con from 0.0189551 to 0.0189551
Heightened Def Con from 0.0190019 +++++++++++++++++++++++to 0.0190019
Heightened Def Con from 0.0190025 ++++++++++++++++++++++++to 0.0190025
Heightened Def Con from 0.0190025 to 0.0190025
Heightened Def Con from 0.0190517 +++++++++++++++++++++++++++++to 0.0190517
Heightened Def Con from 0.0190517 +to 0.0190517
Heightened Def Con from 0.0190525 +to 0.0190525
Heightened Def Con from 0.0190551 to 0.0190552
Heightened Def Con from 0.0190981 +++++++++++++++++++++++to 0.0190981
Heightened Def Con from 0.019102 +++++++++++++++++++++++to 0.019102
Heightened Def Con from 0.0191025 +++++++++++++++++++++++to 0.0191025
Heightened Def Con from 0.0191048 to 0.0191048
Heightened Def Con from 0.019152 +++++++++++++++++++++++++++++to 0.019152
Heightened Def Con from 0.0192021 +++++++++++++++++++++++to 0.0192021
Heightened Def Con from 0.0192025 ++to 0.0192025
Heightened Def Con from 0.0192519 ++++++++++++++++++++++++++to 0.0192519
Heightened Def Con from 0.0192525 +to 0.0192525
Heightened Def Con from 0.0192971 +++++++++++++++++++++++to 0.0192971
Heightened Def Con from 0.019302 +++++++++++++++++++++++to 0.019302
Heightened Def Con from 0.0193025 +++++++++++++++++++to 0.0193025
Heightened Def Con from 0.0193519 +++++++++++++++++++++++++++++to 0.0193519
Heightened Def Con from 0.0194019 +++++++++++++++++++++++to 0.0194019
Heightened Def Con from 0.0194025 +++++++++++to 0.0194025
Heightened Def Con from 0.0194052 to 0.0194052
Heightened Def Con from 0.0194521 +++++++++++++++++++++++++++++to 0.0194521
Heightened Def Con from 0.0194521 to 0.0194521
Heightened Def Con from 0.0194524 to 0.0194524
Heightened Def Con from 0.019502 +++++++++++++++++++++++to 0.019502
Heightened Def Con from 0.0195025 +to 0.0195025
Heightened Def Con from 0.0195025 +to 0.0195025
Heightened Def Con from 0.019552 +++++++++++++++++++++++++to 0.019552
Heightened Def Con from 0.0195524 +++++++++++++++++++to 0.0195524
Heightened Def Con from 0.0196019 +++++++++++++++++++++++to 0.0196019
Heightened Def Con from 0.0196025 +to 0.0196025
Heightened Def Con from 0.0196025 to 0.0196025
Heightened Def Con from 0.019647 +++++++++++++++++++++++++++++to 0.019647
Heightened Def Con from 0.0196521 +++++++++++++++++++++++to 0.0196521
Heightened Def Con from 0.0196524 ++++++++++++++++++++++++++to 0.0196524
Heightened Def Con from 0.0196551 to 0.0196551
Heightened Def Con from 0.019702 +++++++++++++++++++++++to 0.019702
Heightened Def Con from 0.0197025 ++to 0.0197025
Heightened Def Con from 0.0197519 ++++++++++++++++++++++++++to 0.0197519
Heightened Def Con from 0.0197524 ++++++++++++++++++to 0.0197524
Heightened Def Con from 0.0198022 +++++++++++++++++++++++to 0.0198022
Heightened Def Con from 0.0198024 ++++++++++++++++++++to 0.0198024
Heightened Def Con from 0.0198025 +++to 0.0198025
Heightened Def Con from 0.019847 +++++++++++++++++++++++++++++to 0.019847
Heightened Def Con from 0.0198522 +++++++++++++++++++++++to 0.0198522
Heightened Def Con from 0.0198524 +to 0.0198524
Heightened Def Con from 0.0198972 +++++++++++++++++++++++to 0.0198972
Heightened Def Con from 0.0199012 +++++++++++++++++++++++to 0.0199012
Heightened Def Con from 0.0199025 +to 0.0199025
Heightened Def Con from 0.019952 ++++++++++++++++++++++++++to 0.019952
Heightened Def Con from 0.0199524 to 0.0199524
Heightened Def Con from 0.0199551 to 0.0199551
Heightened Def Con from 0.0199982 +++++++++++++++++++++++to 0.0199982
Heightened Def Con from 0.0200022 +++++++++++++++++++++++to 0.0200022
Heightened Def Con from 0.0200024 to 0.0200024
Heightened Def Con from 0.0200515 +++++++++++++++++++++++++++++to 0.0200515
Heightened Def Con from 0.0200521 ++++++++++++++++++++++++++to 0.0200521
Heightened Def Con from 0.0200524 +++++++++++++++++++++++++++to 0.0200524
Heightened Def Con from 0.020102 +++++++++++++++++++++++to 0.020102
Heightened Def Con from 0.0201025 ++++++++++++++++++++to 0.0201025
Heightened Def Con from 0.0201052 to 0.0201052
Heightened Def Con from 0.0201471 +++++++++++++++++++++++++++to 0.0201471
Heightened Def Con from 0.0201521 +++++++++++++++++++++++++to 0.0201521
Heightened Def Con from 0.0201524 +to 0.0201524
Heightened Def Con from 0.0201551 to 0.0201551
Heightened Def Con from 0.0202018 +++++++++++++++++++++++to 0.0202018
Heightened Def Con from 0.0202024 +++++++++++++++to 0.0202024
Heightened Def Con from 0.0202025 to 0.0202025
Heightened Def Con from 0.0202521 +++++++++++++++++++++++++to 0.0202521
Heightened Def Con from 0.0202524 +to 0.0202524
Heightened Def Con from 0.0202524 to 0.0202524
Heightened Def Con from 0.020302 +++++++++++++++++++++++to 0.020302
Heightened Def Con from 0.0203025 +to 0.0203025
Heightened Def Con from 0.0203025 +to 0.0203025
Heightened Def Con from 0.020347 +++++++++++++++++++++++++++++to 0.020347
Heightened Def Con from 0.0203521 +++++++++++++++++++++++to 0.0203521
Heightened Def Con from 0.0203524 ++++++++++++++++++++++++++to 0.0203524
Heightened Def Con from 0.0203525 +to 0.0203525
Heightened Def Con from 0.0203969 +++++++++++++++++++++++to 0.0203969
Heightened Def Con from 0.0204018 +++++++++++++++++++++++to 0.0204018
Heightened Def Con from 0.0204025 +to 0.0204025
Heightened Def Con from 0.0204025 ++to 0.0204025
Heightened Def Con from 0.0204484 to 0.0204484
Heightened Def Con from 0.0204516 ++++++++++++++++++++++++++++++to 0.0204516
Heightened Def Con from 0.0204516 to 0.0204516
Heightened Def Con from 0.0204516 ++to 0.0204516
Heightened Def Con from 0.0204516 to 0.0204516
Heightened Def Con from 0.0204524 ++++++++++++++++to 0.0204524
Heightened Def Con from 0.020502 +++++++++++++++++++++++to 0.020502
Heightened Def Con from 0.0205025 ++++++++++++to 0.0205025
Heightened Def Con from 0.020547 ++++++++++++++++++++++++++++++to 0.020547
Heightened Def Con from 0.020547 to 0.020547
Heightened Def Con from 0.020552 +++++++++++++++++++++++++++++to 0.020552
Heightened Def Con from 0.0205524 ++++++++++++++++++++++++++++to 0.0205524
Heightened Def Con from 0.0205547 to 0.0205547
Heightened Def Con from 0.020602 +++++++++++++++++++++++to 0.020602
Heightened Def Con from 0.0206025 ++to 0.0206025
Heightened Def Con from 0.0206025 to 0.0206025
Heightened Def Con from 0.020647 ++++++++++++++++++++++++++++++to 0.020647
Heightened Def Con from 0.020647 to 0.020647
[...]
Heightened Def Con from 0.0951524 to 0.0951524
Heightened Def Con from 0.0952019 +++++++++++++++++++++++to 0.0952019
Heightened Def Con from 0.0952025 +to 0.0952025
Heightened Def Con from 0.0952469 +++++++++++++++++++++++++++++to 0.0952469
Heightened Def Con from 0.0952469 +to 0.0952469
Heightened Def Con from 0.0952517 +++++++++++++++++++++++++++++to 0.0952517
Heightened Def Con from 0.0952524 ++++++++++++++++++++to 0.0952524
Heightened Def Con from 0.0952551 to 0.0952551
Heightened Def Con from 0.095302 +++++++++++++++++++++++to 0.095302
Heightened Def Con from 0.0953025 ++++++++++++++++++++++to 0.0953025
Heightened Def Con from 0.095347 ++++++++++++++++++++++++++++++to 0.095347
Heightened Def Con from 0.095347 to 0.095347
Heightened Def Con from 0.095347 to 0.095347
Heightened Def Con from 0.095347 to 0.095347
Heightened Def Con from 0.095347 +to 0.095347
Heightened Def Con from 0.095347 to 0.095347
Heightened Def Con from 0.095347 to 0.095347
Heightened Def Con from 0.0953517 ++++++++++++++++++++++++++to 0.0953517
Heightened Def Con from 0.0953524 +to 0.0953524
Heightened Def Con from 0.0954019 +++++++++++++++++++++++to 0.0954019
Heightened Def Con from 0.0954024 +to 0.0954024
Heightened Def Con from 0.0954025 +to 0.0954025
Heightened Def Con from 0.0954052 to 0.0954052
Heightened Def Con from 0.0954519 ++++++++++++++++++++++++++to 0.0954519
Heightened Def Con from 0.0954525 +to 0.0954525
Heightened Def Con from 0.095502 +++++++++++++++++++++++to 0.095502
Heightened Def Con from 0.0955025 +++++++++++to 0.0955025
Heightened Def Con from 0.0955025 to 0.0955025
Heightened Def Con from 0.0955513 ++++++++++++++++++++++++++to 0.0955513
Heightened Def Con from 0.095552 ++++++++++++++++++++++++++to 0.095552
Heightened Def Con from 0.095602 +++++++++++++++++++++++to 0.095602
Heightened Def Con from 0.0956025 ++to 0.0956025
Heightened Def Con from 0.0956048 to 0.0956048
Heightened Def Con from 0.095647 +++++++++++++++++++++++++++++to 0.095647
Heightened Def Con from 0.0956521 +++++++++++++++++++++++to 0.0956521
Heightened Def Con from 0.0956524 to 0.0956524
Heightened Def Con from 0.0956981 +++++++++++++++++++++++to 0.0956981
Heightened Def Con from 0.0957019 +++++++++++++++++++++++to 0.0957019
Heightened Def Con from 0.0957025 +++++++++++++++++to 0.0957025
Heightened Def Con from 0.0957025 to 0.0957025
Heightened Def Con from 0.095747 +++++++++++++++++++++++++++++to 0.095747
Heightened Def Con from 0.0957521 +++++++++++++++++++++++to 0.0957521
Heightened Def Con from 0.0957524 +++++++++++++++++++++++to 0.0957524
Heightened Def Con from 0.0957525 ++++++++++++to 0.0957525
Heightened Def Con from 0.0957547 to 0.0957547
Heightened Def Con from 0.0957551 to 0.0957551
Heightened Def Con from 0.0958018 +++++++++++++++++++++++++++to 0.0958018
Heightened Def Con from 0.0958025 ++++++++++++to 0.0958025
Heightened Def Con from 0.0958469 +++++++++++++++++++++++++++++to 0.0958469
Heightened Def Con from 0.0958469 to 0.0958469
Heightened Def Con from 0.0958517 +++++++++++++++++++++++++++++to 0.0958517
Heightened Def Con from 0.0958517 +to 0.0958517
Heightened Def Con from 0.0958524 +to 0.0958524
Heightened Def Con from 0.095902 +++++++++++++++++++++++to 0.095902
Heightened Def Con from 0.0959025 +++++++++++++++++++++++to 0.0959025
Heightened Def Con from 0.095947 ++++++++++++++++++++++++++++++to 0.095947
Heightened Def Con from 0.095947 to 0.095947
Heightened Def Con from 0.095947 to 0.095947
Heightened Def Con from 0.095947 +++++++++++++++++++++++++++to 0.095947
Heightened Def Con from 0.0959524 ++++++++++++++++++to 0.0959524
Heightened Def Con from 0.0959969 +++++++++++++++++++++++to 0.0959969
Heightened Def Con from 0.0960018 +++++++++++++++++++++++to 0.0960018
Heightened Def Con from 0.0960024 +to 0.0960024
Heightened Def Con from 0.0960025 ++++++++++++to 0.0960025
Heightened Def Con from 0.096047 +++++++++++++++++++++++++++++to 0.096047
Heightened Def Con from 0.0960524 ++to 0.0960524
Heightened Def Con from 0.0960525 +to 0.0960525
Heightened Def Con from 0.0960981 +++++++++++++++++++++++to 0.0960981
Heightened Def Con from 0.096102 +++++++++++++++++++++++to 0.096102
Heightened Def Con from 0.0961024 ++++++++++++++++++to 0.0961024
Heightened Def Con from 0.096147 ++++++++++++++++++++++++++++++to 0.096147
Heightened Def Con from 0.096147 to 0.096147
Heightened Def Con from 0.096147 to 0.096147
Heightened Def Con from 0.096147 to 0.096147
Heightened Def Con from 0.096147 +to 0.096147
Heightened Def Con from 0.096147 to 0.096147
Heightened Def Con from 0.096147 +to 0.096147
Heightened Def Con from 0.0961519 ++++++++++++++++++++++++++to 0.0961519
Heightened Def Con from 0.0961524 +++++++++++++++++++++++++++++++++++to 0.0961524
Heightened Def Con from 0.0961524 ++++++++++++++++++to 0.0961524
Heightened Def Con from 0.0961524 ++to 0.0961524
Heightened Def Con from 0.0961524 to 0.0961524
Heightened Def Con from 0.0961524 +to 0.0961524
Heightened Def Con from 0.0961524 to 0.0961524
Heightened Def Con from 0.0961971 +++++++++++++++++++++++to 0.0961971
Heightened Def Con from 0.0962021 +++++++++++++++++++++++to 0.0962021
Heightened Def Con from 0.0962025 +to 0.0962025
Heightened Def Con from 0.0962471 ++++++++++++++++++++++++++++++to 0.0962471
Heightened Def Con from 0.0962471 to 0.0962471
Heightened Def Con from 0.0962519 ++++++++++++++++++++++++++to 0.0962519
Heightened Def Con from 0.0962551 to 0.0962551
Heightened Def Con from 0.0962981 +++++++++++++++++++++++to 0.0962981
Heightened Def Con from 0.096302 +++++++++++++++++++++++to 0.096302
Heightened Def Con from 0.0963025 ++++++++++++++++++++++++++to 0.0963025
Heightened Def Con from 0.0963515 ++++++++++++++++++++++++++++++to 0.0963515
Heightened Def Con from 0.0963515 to 0.0963515
Heightened Def Con from 0.0963515 to 0.0963515
Heightened Def Con from 0.0963515 to 0.0963515
Heightened Def Con from 0.0963515 +to 0.0963515
Heightened Def Con from 0.0963524 +++to 0.0963524
Heightened Def Con from 0.0963525 +to 0.0963525
Heightened Def Con from 0.096402 +++++++++++++++++++++++to 0.096402
Heightened Def Con from 0.0964025 +++to 0.0964025
Heightened Def Con from 0.096447 ++++++++++++++++++++++++++++++to 0.096447
Heightened Def Con from 0.096447 to 0.096447
Heightened Def Con from 0.0964525 ++to 0.0964525
Heightened Def Con from 0.0964551 to 0.0964551
Heightened Def Con from 0.0964984 +++++++++++++++++++++++to 0.0964984
Heightened Def Con from 0.096502 ++++++++++++++++++++++++to 0.096502
Heightened Def Con from 0.0965024 +to 0.0965024
Heightened Def Con from 0.0965025 +to 0.0965025
Heightened Def Con from 0.0965025 to 0.0965025
Heightened Def Con from 0.096547 +++++++++++++++++++++++++++++to 0.096547
Heightened Def Con from 0.0965521 +++++++++++++++++++++++to 0.0965521
Heightened Def Con from 0.0965525 ++to 0.0965525
Heightened Def Con from 0.0965551 to 0.0965551
Heightened Def Con from 0.0966019 +++++++++++++++++++++++to 0.0966019
Heightened Def Con from 0.0966024 +to 0.0966024
Heightened Def Con from 0.0966025 to 0.0966025
Heightened Def Con from 0.096647 +++++++++++++++++++++++++++++to 0.096647
Heightened Def Con from 0.0966521 +++++++++++++++++++++++to 0.0966521
Heightened Def Con from 0.0966525 +to 0.0966525
Heightened Def Con from 0.0966972 +++++++++++++++++++++++to 0.0966972
Heightened Def Con from 0.0967025 +to 0.0967025
Heightened Def Con from 0.0967052 to 0.0967052
Heightened Def Con from 0.096752 ++++++++++++++++++++++++++to 0.096752
Heightened Def Con from 0.0967525 to 0.0967525
Heightened Def Con from 0.0967551 +to 0.0967551
Heightened Def Con from 0.0968014 +++++++++++++++++++++++to 0.0968014
Heightened Def Con from 0.0968025 +to 0.0968025
Heightened Def Con from 0.0968524 +++++++++++++++++++++to 0.0968524
Heightened Def Con from 0.0968982 +++++++++++++++++++++++to 0.0968982
Heightened Def Con from 0.0969019 +++++++++++++++++++++++to 0.0969019
Heightened Def Con from 0.0969024 +++++++++++++++++to 0.0969024
Heightened Def Con from 0.0969025 to 0.0969025
Heightened Def Con from 0.0969512 ++++++++++++++++++++++++to 0.0969512
Heightened Def Con from 0.0969521 ++++++++++++++++++++++++++to 0.0969521
Heightened Def Con from 0.0969525 +to 0.0969525
Heightened Def Con from 0.0969981 +++++++++++++++++++++++to 0.0969981
Heightened Def Con from 0.0970018 +++++++++++++++++++++++to 0.0970018
Heightened Def Con from 0.0970025 to 0.0970025
Heightened Def Con from 0.0970519 +++++++++++++++++++++++++to 0.0970519
Heightened Def Con from 0.0970524 ++to 0.0970524
Heightened Def Con from 0.0970969 +++++++++++++++++++++++to 0.0970969
Heightened Def Con from 0.0971018 +++++++++++++++++++++++to 0.0971018
Heightened Def Con from 0.0971025 to 0.0971025
Heightened Def Con from 0.097152 ++++++++++++++++++++++++++to 0.097152
Heightened Def Con from 0.0971524 +to 0.0971524
Heightened Def Con from 0.0971551 to 0.0971551
Heightened Def Con from 0.0972019 +++++++++++++++++++++++to 0.0972019
Heightened Def Con from 0.0972025 ++to 0.0972025
Heightened Def Con from 0.097247 ++++++++++++++++++++++++++++++to 0.097247
Heightened Def Con from 0.097247 to 0.097247
Heightened Def Con from 0.097247 to 0.097247
Heightened Def Con from 0.097252 +++++++++++++++++++++++++++to 0.097252
Heightened Def Con from 0.0972524 ++++++++++++++++++++to 0.0972524
Heightened Def Con from 0.0972525 ++++++to 0.0972525
Heightened Def Con from 0.0973019 +++++++++++++++++++++++to 0.0973019
Heightened Def Con from 0.0973052 to 0.0973052
Heightened Def Con from 0.0973519 +++++++++++++++++++++++++to 0.0973519
Heightened Def Con from 0.0973524 ++++++++++++++++++to 0.0973524
Heightened Def Con from 0.0974021 +++++++++++++++++++++++to 0.0974021
Heightened Def Con from 0.0974025 +++++++++++++++to 0.0974025
Heightened Def Con from 0.097452 ++++++++++++++++++++++++++to 0.097452
Heightened Def Con from 0.0974524 ++++++++++++++++to 0.0974524
Heightened Def Con from 0.097502 +++++++++++++++++++++++to 0.097502
Heightened Def Con from 0.0975025 +++++++++++++++++++++to 0.0975025
Heightened Def Con from 0.0975052 +to 0.0975052
Heightened Def Con from 0.0975519 +++++++++++++++++++++++++to 0.0975519
Heightened Def Con from 0.0975524 to 0.0975524
Heightened Def Con from 0.0976019 +++++++++++++++++++++++to 0.0976019
Heightened Def Con from 0.0976024 ++to 0.0976024
Heightened Def Con from 0.0976472 ++++++++++++++++++++++++++++++to 0.0976472
Heightened Def Con from 0.0976472 to 0.0976472
Heightened Def Con from 0.0976518 ++++++++++++++++++++++++++to 0.0976518
Heightened Def Con from 0.0976524 +++++++++++to 0.0976524
Heightened Def Con from 0.0976525 +to 0.0976525
Heightened Def Con from 0.0977011 +++++++++++++++++++++++to 0.0977011
Heightened Def Con from 0.0977021 +++++++++++++++++++++++to 0.0977021
Heightened Def Con from 0.0977519 +++++++++++++++++++++++++++++to 0.0977519
Heightened Def Con from 0.0977524 +++++++++++++to 0.0977524
Heightened Def Con from 0.0977525 to 0.0977525
Heightened Def Con from 0.0978025 +++++++to 0.0978025
Heightened Def Con from 0.0978025 +to 0.0978025
Heightened Def Con from 0.097852 +++++++++++++++++++++++++++++to 0.097852
Heightened Def Con from 0.0978524 +to 0.0978524
Heightened Def Con from 0.0978525 +to 0.0978525
Heightened Def Con from 0.0979014 +++++++++++++++++++++++to 0.0979014
Heightened Def Con from 0.0979025 +to 0.0979025
Heightened Def Con from 0.0979052 to 0.0979052
Heightened Def Con from 0.097947 +++++++++++++++++++++++++++++to 0.097947
Heightened Def Con from 0.0979521 +++++++++++++++++++++++to 0.0979521
Heightened Def Con from 0.0979524 to 0.0979524
Heightened Def Con from 0.0980019 +++++++++++++++++++++++to 0.0980019
Heightened Def Con from 0.0980025 +to 0.0980025
Heightened Def Con from 0.0980519 ++++++++++++++++++++++++++to 0.0980519
Heightened Def Con from 0.0980524 +++++++++++++++++++++++++to 0.0980524
Heightened Def Con from 0.0980525 ++++++++++++++++++++++to 0.0980525
Heightened Def Con from 0.0981018 +++++++++++++++++++++++to 0.0981018
Heightened Def Con from 0.0981024 ++++++++++++++++++to 0.0981024
Heightened Def Con from 0.0981024 to 0.0981024
Heightened Def Con from 0.0981025 to 0.0981025
Heightened Def Con from 0.0981052 +to 0.0981052
Heightened Def Con from 0.098147 ++++++++++++++++++++++++++++++to 0.098147
Heightened Def Con from 0.098147 to 0.098147
Heightened Def Con from 0.0981521 +++++++++++++++++++++++++++++to 0.0981521
Heightened Def Con from 0.0981521 to 0.0981521
Heightened Def Con from 0.0981524 to 0.0981524
Heightened Def Con from 0.0982018 +++++++++++++++++++++++to 0.0982018
Heightened Def Con from 0.0982025 to 0.0982025
Heightened Def Con from 0.098247 ++++++++++++++++++++++++++++++to 0.098247
Heightened Def Con from 0.098247 to 0.098247
Heightened Def Con from 0.098252 ++++++++++++++++++++++++++to 0.098252
Heightened Def Con from 0.0982524 +to 0.0982524
Heightened Def Con from 0.098302 +++++++++++++++++++++++to 0.098302
Heightened Def Con from 0.0983024 ++++++++++++++++++++to 0.0983024
Heightened Def Con from 0.0983025 ++++++++++++++++++++++++++to 0.0983025
Heightened Def Con from 0.098347 +++++++++++++++++++++++++++++to 0.098347
Heightened Def Con from 0.0983521 +++++++++++++++++++++++to 0.0983521
Heightened Def Con from 0.0983524 to 0.0983524
Heightened Def Con from 0.0983971 +++++++++++++++++++++++to 0.0983971
Heightened Def Con from 0.098402 +++++++++++++++++++++++to 0.098402
Heightened Def Con from 0.0984025 +to 0.0984025
Heightened Def Con from 0.0984519 +++++++++++++++++++++++++to 0.0984519
Heightened Def Con from 0.0984525 ++++++++++++++++++to 0.0984525
Heightened Def Con from 0.0984525 +to 0.0984525
Heightened Def Con from 0.0985019 +++++++++++++++++++++++to 0.0985019
Heightened Def Con from 0.0985024 ++++++++++++++++++++++++++to 0.0985024
Heightened Def Con from 0.098547 ++++++++++++++++++++++++++++++to 0.098547
Heightened Def Con from 0.098547 to 0.098547
Heightened Def Con from 0.0985521 +++++++++++++++++++++++++++++to 0.0985521
Heightened Def Con from 0.0985521 to 0.0985521
Heightened Def Con from 0.0985969 +++++++++++++++++++++++to 0.0985969
Heightened Def Con from 0.0986018 +++++++++++++++++++++++to 0.0986018
Heightened Def Con from 0.0986025 +++++++++++++++++++++++to 0.0986025
Heightened Def Con from 0.0986471 ++++++++++++++++++++++++++++++to 0.0986471
Heightened Def Con from 0.0986471 to 0.0986471
Heightened Def Con from 0.0986471 to 0.0986471
Heightened Def Con from 0.098652 ++++++++++++++++++++++to 0.098652
Heightened Def Con from 0.0986525 +to 0.0986525
Heightened Def Con from 0.098702 +++++++++++++++++++++++to 0.098702
Heightened Def Con from 0.0987481 ++++++++++++++++++++++++to 0.0987481
Heightened Def Con from 0.0987519 +++++++++++++++++++++++++++++to 0.0987519
Heightened Def Con from 0.0988018 +++++++++++++++++++++++to 0.0988018
Heightened Def Con from 0.0988024 ++to 0.0988024
Heightened Def Con from 0.098847 ++++++++++++++++++++++++++++++to 0.098847
Heightened Def Con from 0.098847 to 0.098847
Heightened Def Con from 0.0988521 +++++++++++++++++++++++++++++to 0.0988521
Heightened Def Con from 0.0988521 to 0.0988521
Heightened Def Con from 0.0988524 to 0.0988525
Heightened Def Con from 0.0989022 +++++++++++++++to 0.0989022
Heightened Def Con from 0.098952 ++++++++++++++++++++++++++to 0.098952
Heightened Def Con from 0.0989524 +++++++++++++++++++++++to 0.0989524
Heightened Def Con from 0.0989525 +++++++++++++++++to 0.0989525
Heightened Def Con from 0.0990025 +to 0.0990025
Heightened Def Con from 0.099047 +++++++++++++++++++++++++++++to 0.099047
Heightened Def Con from 0.0990521 +++++++++++++++++++++++to 0.0990521
Heightened Def Con from 0.0990524 +++++++++++++++++to 0.0990524
Heightened Def Con from 0.0990525 ++++++++++++++++++to 0.0990525
Heightened Def Con from 0.099097 +++++++++++++++++++++++to 0.099097
Heightened Def Con from 0.099102 +++++++++++++++++++++++to 0.099102
Heightened Def Con from 0.0991025 +to 0.0991025
Heightened Def Con from 0.0991025 +to 0.0991025
Heightened Def Con from 0.0991471 ++++++++++++++++++++++++++++++to 0.0991471
Heightened Def Con from 0.0991471 to 0.0991471
Heightened Def Con from 0.0991471 to 0.0991471
Heightened Def Con from 0.0991519 ++++++++++++++++++++++to 0.0991519
Heightened Def Con from 0.0991524 ++++++++++++++++++++++++++to 0.0991524
Heightened Def Con from 0.099202 +++++++++++++++++++++++to 0.099202
Heightened Def Con from 0.0992025 ++++++++++++++++++++++++to 0.0992025
Heightened Def Con from 0.099247 +++++++++++++++++++++++++++++to 0.099247
Heightened Def Con from 0.0992521 +++++++++++++++++++++++to 0.0992521
Heightened Def Con from 0.0992524 +to 0.0992524
Heightened Def Con from 0.0992551 to 0.0992551
Heightened Def Con from 0.099297 +++++++++++++++++++++++to 0.099297
Heightened Def Con from 0.099302 +++++++++++++++++++++++to 0.099302
Heightened Def Con from 0.0993025 +to 0.0993025
Heightened Def Con from 0.0993515 ++++++++++++++++++++++++++++++to 0.0993515
Heightened Def Con from 0.0993515 to 0.0993515
Heightened Def Con from 0.0993515 to 0.0993515
Heightened Def Con from 0.0993524 ++to 0.0993524
Heightened Def Con from 0.0993551 to 0.0993551
Heightened Def Con from 0.0994022 +++++++++++++++++++++++to 0.0994022
Heightened Def Con from 0.0994519 +++++++++++++++++++++++++++++to 0.0994519
Heightened Def Con from 0.0994524 +++++++++++++++to 0.0994524
Heightened Def Con from 0.0994525 to 0.0994525
Heightened Def Con from 0.0995012 +++++++++++++++++++++++to 0.0995012
Heightened Def Con from 0.0995021 +++++++++++++++++++++++to 0.0995021
Heightened Def Con from 0.0995024 ++++++++++++++++++to 0.0995024
Heightened Def Con from 0.0995025 +++++++++++++++++++++++to 0.0995025
Heightened Def Con from 0.099547 +++++++++++++++++++++++++++++to 0.099547
Heightened Def Con from 0.0995521 +++++++++++++++++++++++to 0.0995521
Heightened Def Con from 0.0995525 +to 0.0995525
Heightened Def Con from 0.0995551 to 0.0995551
Heightened Def Con from 0.0996018 +++++++++++++++++++++++to 0.0996018
Heightened Def Con from 0.0996025 ++++++++++++++++++++to 0.0996025
Heightened Def Con from 0.0996025 +to 0.0996025
Heightened Def Con from 0.0996471 +++++++++++++++++++++++++++++to 0.0996471
Heightened Def Con from 0.0996513 ++++++++++++++++++++++to 0.0996513
Heightened Def Con from 0.0996524 +++++++++++++++++++++++++++to 0.0996524
Heightened Def Con from 0.0997021 +++++++++++++++++++++++to 0.0997021
Heightened Def Con from 0.0997024 ++++++++++++++++to 0.0997024
Heightened Def Con from 0.0997025 +to 0.0997025
Heightened Def Con from 0.0997471 ++++++++++++++++++++++++++++++to 0.0997471
Heightened Def Con from 0.0997471 to 0.0997471
Heightened Def Con from 0.0997471 to 0.0997471
Heightened Def Con from 0.0997519 ++++++++++++++++++++++to 0.0997519
Heightened Def Con from 0.0997524 ++to 0.0997524
Heightened Def Con from 0.099802 +++++++++++++++++++++++to 0.099802
Heightened Def Con from 0.0998025 ++to 0.0998025
Heightened Def Con from 0.0998052 to 0.0998052
Heightened Def Con from 0.0998471 +++++++++++++++++++++++++++++to 0.0998471
Heightened Def Con from 0.0998513 ++++++++++++++++++++++to 0.0998513
Heightened Def Con from 0.0998524 ++++++++++++++++++++++++++to 0.0998524
Heightened Def Con from 0.0998981 +++++++++++++++++++++++to 0.0998981
Heightened Def Con from 0.0999019 +++++++++++++++++++++++to 0.0999019
Heightened Def Con from 0.0999024 +++++++++++++++++++++++to 0.0999024
Heightened Def Con from 0.0999025 ++++++++++++++++++++++to 0.0999025
Heightened Def Con from 0.099947 +++++++++++++++++++++++++++++to 0.099947
Heightened Def Con from 0.0999521 +++++++++++++++++++++++to 0.0999521
Heightened Def Con from 0.0999524 ++to 0.0999524
Heightened Def Con from 0.0999525 +to 0.0999525
Heightened Def Con from 0.0999551 +to 0.0999551

Date: Thu Nov 28 13:06:10 2024
Total elapsed time: 149.097 seconds.

tnom = 27
temp = 27
method = modified trap
totiter = 14037384
traniter = 14037370
tranpoints = 1954462
accept = 902082
rejected = 1151393
matrix size = 153
fillins = 164
solver = Normal
Thread vector: 10.2/4.4[4] 2.1/1.4[4] 2.2/1.0[4] 0.8/1.2[1]  2592/500
Matrix Compiler1: 16.94 KB object code size  3.3/1.7/[0.7]
Matrix Compiler2: 15.51 KB object code size  1.3/1.9/[1.2]

